Circuit: * C:\Users\burak\Desktop\EE 464\MetuInstrumentProject\LTspice\Forward Converter.asc

Direct Newton iteration failed to find .op point.  (Use ".option noopiter" to skip.)
Starting Gmin stepping
Gmin = 10
Gmin = 1.07374
Gmin = 0.115292
Gmin = 0.0123794
Gmin = 0.00132923
Gmin = 0.000142725
Gmin = 1.5325e-005
Gmin = 1.6455e-006
Gmin = 1.76685e-007
Gmin = 1.89714e-008
Gmin = 2.03704e-009
Gmin = 2.18725e-010
Gmin = 2.34854e-011
Gmin = 2.52173e-012
Gmin = 2.70769e-013
Gmin = 0
Gmin stepping succeeded in finding the operating point.

Ignoring empty pin current: Ix(u1:5)
Ignoring empty pin current: Ix(u1:5)
Heightened Def Con from 5.6668e-005 to 5.6672e-005
Heightened Def Con from 7.07823e-005 to 7.07863e-005
Heightened Def Con from 8.2806e-005 to 8.2811e-005
Heightened Def Con from 0.000126595 to 0.000126599
Heightened Def Con from 0.000164839 to 0.000164843
Heightened Def Con from 0.000175879 to 0.000175883
Heightened Def Con from 0.000181199 to 0.000181204
Heightened Def Con from 0.000186474 to 0.000186478
Heightened Def Con from 0.000191607 to 0.000191611
Heightened Def Con from 0.000215661 to 0.000215665
Heightened Def Con from 0.000229196 to 0.000229201
Heightened Def Con from 0.000250462 to 0.000250466
Heightened Def Con from 0.000262483 to 0.000262488
Heightened Def Con from 0.000266429 to 0.000266434
Heightened Def Con from 0.000289388 to 0.000289393
Heightened Def Con from 0.000293223 to 0.000293228
Heightened Def Con from 0.000308563 to 0.000308567
Heightened Def Con from 0.000312398 to 0.000312402
Heightened Def Con from 0.000320067 to 0.000320071
Heightened Def Con from 0.000323901 to 0.000323906
Heightened Def Con from 0.000331571 to 0.000331575
Heightened Def Con from 0.000335405 to 0.00033541
Heightened Def Con from 0.000362249 to 0.000362254
Heightened Def Con from 0.000373754 to 0.000373758
Heightened Def Con from 0.000396763 to 0.000396767
Heightened Def Con from 0.000404431 to 0.000404436
Heightened Def Con from 0.000419771 to 0.000419776
Heightened Def Con from 0.000423607 to 0.000423611
Heightened Def Con from 0.000431277 to 0.000431281
Heightened Def Con from 0.000438946 to 0.00043895
Heightened Def Con from 0.00045045 to 0.000450454
Heightened Def Con from 0.00045792 to 0.000457926
Heightened Def Con from 0.00045812 to 0.000458124
Heightened Def Con from 0.000492631 to 0.000492635
Heightened Def Con from 0.000500299 to 0.000500304
Heightened Def Con from 0.000511803 to 0.000511808
Heightened Def Con from 0.000515639 to 0.000515643
Heightened Def Con from 0.000527143 to 0.000527148
Heightened Def Con from 0.000530979 to 0.000530984
Heightened Def Con from 0.000538649 to 0.000538654
Heightened Def Con from 0.000546317 to 0.000546322
Heightened Def Con from 0.000553985 to 0.00055399
Heightened Def Con from 0.000561656 to 0.00056166
Heightened Def Con from 0.00056549 to 0.000565495
Heightened Def Con from 0.000569324 to 0.000569329
Heightened Def Con from 0.000576996 to 0.000577
Heightened Def Con from 0.00058083 to 0.000580835
Heightened Def Con from 0.000596169 to 0.000596173
Heightened Def Con from 0.000600004 to 0.000600008
Heightened Def Con from 0.000615341 to 0.000615345
Heightened Def Con from 0.000623009 to 0.000623013
Heightened Def Con from 0.000626844 to 0.000626848
Heightened Def Con from 0.000630678 to 0.000630682
Heightened Def Con from 0.000634512 to 0.000634517
Heightened Def Con from 0.000642183 to 0.000642187
Heightened Def Con from 0.000646018 to 0.000646022
Heightened Def Con from 0.000657518 to 0.000657523
Heightened Def Con from 0.000665188 to 0.000665192
Heightened Def Con from 0.000684362 to 0.000684367
Heightened Def Con from 0.000692032 to 0.000692036
Heightened Def Con from 0.000695867 to 0.000695871
Heightened Def Con from 0.000715041 to 0.000715045
Heightened Def Con from 0.000726544 to 0.000726549
Heightened Def Con from 0.000757219 to 0.000757224
Heightened Def Con from 0.000764887 to 0.000764892
Heightened Def Con from 0.000772554 to 0.000772559
Heightened Def Con from 0.000784059 to 0.000784064
Heightened Def Con from 0.000795563 to 0.000795568
Heightened Def Con from 0.000799397 to 0.000799401
Heightened Def Con from 0.000807065 to 0.000807069
Heightened Def Con from 0.0008109 to 0.000810904
Heightened Def Con from 0.000814735 to 0.000814739
Heightened Def Con from 0.000818569 to 0.000818574
Heightened Def Con from 0.000822205 to 0.000822213
Heightened Def Con from 0.00082624 to 0.000826244
Heightened Def Con from 0.000833908 to 0.000833912
Heightened Def Con from 0.000837742 to 0.000837747
Heightened Def Con from 0.000845409 to 0.000845414
Heightened Def Con from 0.000853076 to 0.000853081
Heightened Def Con from 0.000856912 to 0.000856916
Heightened Def Con from 0.000860745 to 0.000860749
Heightened Def Con from 0.000864579 to 0.000864583
Heightened Def Con from 0.000872245 to 0.00087225
Heightened Def Con from 0.000879916 to 0.00087992
Heightened Def Con from 0.000887587 to 0.000887591
Heightened Def Con from 0.000895256 to 0.00089526
Heightened Def Con from 0.000899089 to 0.000899093
Heightened Def Con from 0.000914425 to 0.00091443
Heightened Def Con from 0.000929762 to 0.000929766
Heightened Def Con from 0.000933596 to 0.0009336
Heightened Def Con from 0.000941265 to 0.00094127
Heightened Def Con from 0.0009451 to 0.000945104
Heightened Def Con from 0.000948934 to 0.000948939
Heightened Def Con from 0.000952767 to 0.000952772
Heightened Def Con from 0.000964076 to 0.000964084
Heightened Def Con from 0.00096427 to 0.000964274
Heightened Def Con from 0.000971939 to 0.000971943
Heightened Def Con from 0.000975773 to 0.000975777
Heightened Def Con from 0.000979607 to 0.000979612
Heightened Def Con from 0.000983441 to 0.000983445
Heightened Def Con from 0.000987274 to 0.000987279
Heightened Def Con from 0.000994943 to 0.000994947
Heightened Def Con from 0.000998778 to 0.000998782
Heightened Def Con from 0.00101008 to 0.00101009
Heightened Def Con from 0.00101795 to 0.00101796
Heightened Def Con from 0.00102945 to 0.00102946
Heightened Def Con from 0.00103329 to 0.00103329
Heightened Def Con from 0.00104096 to 0.00104096
Heightened Def Con from 0.0010561 to 0.00105611
Heightened Def Con from 0.0010678 to 0.0010678
Heightened Def Con from 0.00107547 to 0.00107547
Heightened Def Con from 0.0010793 to 0.00107931
Heightened Def Con from 0.00108314 to 0.00108314
Heightened Def Con from 0.00109081 to 0.00109081
Heightened Def Con from 0.00109464 to 0.00109465
Heightened Def Con from 0.00109848 to 0.00109848
Heightened Def Con from 0.00110614 to 0.00110615
Heightened Def Con from 0.00110998 to 0.00110998
Heightened Def Con from 0.00111765 to 0.00111765
Heightened Def Con from 0.00112128 to 0.00112129
Heightened Def Con from 0.00112532 to 0.00112532
Heightened Def Con from 0.00113299 to 0.00113299
Heightened Def Con from 0.00113682 to 0.00113682
Heightened Def Con from 0.00114449 to 0.00114449
Heightened Def Con from 0.00115216 to 0.00115216
Heightened Def Con from 0.00115599 to 0.001156
Heightened Def Con from 0.00115983 to 0.00115983
Heightened Def Con from 0.001179 to 0.001179
Heightened Def Con from 0.0011905 to 0.00119051
Heightened Def Con from 0.00120584 to 0.00120584
Heightened Def Con from 0.00120967 to 0.00120968
Heightened Def Con from 0.00121331 to 0.00121332
Heightened Def Con from 0.00122118 to 0.00122118
Heightened Def Con from 0.00122885 to 0.00122885
Heightened Def Con from 0.00124035 to 0.00124036
Heightened Def Con from 0.00125933 to 0.00125933
Heightened Def Con from 0.00127103 to 0.00127103
Heightened Def Con from 0.00128253 to 0.00128254
Heightened Def Con from 0.0012902 to 0.00129021
Heightened Def Con from 0.00129787 to 0.00129787
Heightened Def Con from 0.00130554 to 0.00130554
Heightened Def Con from 0.00131321 to 0.00131321
Heightened Def Con from 0.00133238 to 0.00133239
Heightened Def Con from 0.00133622 to 0.00133622
Heightened Def Con from 0.00134772 to 0.00134772
Heightened Def Con from 0.00135136 to 0.00135136
Heightened Def Con from 0.00135155 to 0.00135156
Heightened Def Con from 0.00135539 to 0.00135539
Heightened Def Con from 0.00136689 to 0.0013669
Heightened Def Con from 0.00137073 to 0.00137073
Heightened Def Con from 0.00137456 to 0.00137457
Heightened Def Con from 0.0013784 to 0.0013784
Heightened Def Con from 0.00138223 to 0.00138223
Heightened Def Con from 0.00138607 to 0.00138607
Heightened Def Con from 0.0013899 to 0.0013899
Heightened Def Con from 0.00139757 to 0.00139757
Heightened Def Con from 0.0014014 to 0.00140141
Heightened Def Con from 0.00140524 to 0.00140524
Heightened Def Con from 0.00140907 to 0.00140908
Heightened Def Con from 0.00141291 to 0.00141291
Heightened Def Con from 0.00142057 to 0.00142058
Heightened Def Con from 0.00143208 to 0.00143208
Heightened Def Con from 0.00143975 to 0.00143975
Heightened Def Con from 0.00144358 to 0.00144359
Heightened Def Con from 0.00145125 to 0.00145125
Heightened Def Con from 0.00146275 to 0.00146276
Heightened Def Con from 0.00146659 to 0.00146659
Heightened Def Con from 0.00147042 to 0.00147043
Heightened Def Con from 0.00147809 to 0.0014781
Heightened Def Con from 0.00148576 to 0.00148577
Heightened Def Con from 0.0014896 to 0.0014896
Heightened Def Con from 0.0015011 to 0.0015011
Heightened Def Con from 0.00150493 to 0.00150494
Heightened Def Con from 0.00150877 to 0.00150877
Heightened Def Con from 0.00152027 to 0.00152028
Heightened Def Con from 0.00152411 to 0.00152411
Heightened Def Con from 0.00152794 to 0.00152795
Heightened Def Con from 0.00153178 to 0.00153178
Heightened Def Con from 0.00154328 to 0.00154328
Heightened Def Con from 0.00154711 to 0.00154712
Heightened Def Con from 0.00155861 to 0.00155862
Heightened Def Con from 0.00156245 to 0.00156245
Heightened Def Con from 0.00156628 to 0.00156629
Heightened Def Con from 0.00157012 to 0.00157012
Heightened Def Con from 0.00157395 to 0.00157396
Heightened Def Con from 0.00157778 to 0.00157779
Heightened Def Con from 0.00158162 to 0.00158162
Heightened Def Con from 0.00159312 to 0.00159313
Heightened Def Con from 0.00159696 to 0.00159696
Heightened Def Con from 0.00160463 to 0.00160463
Heightened Def Con from 0.00161229 to 0.0016123
Heightened Def Con from 0.00161613 to 0.00161613
Heightened Def Con from 0.00161977 to 0.00161977
Heightened Def Con from 0.00162763 to 0.00162763
Heightened Def Con from 0.00163146 to 0.00163147
Heightened Def Con from 0.00163913 to 0.00163914
Heightened Def Con from 0.0016468 to 0.00164681
Heightened Def Con from 0.00167365 to 0.00167365
Heightened Def Con from 0.00167748 to 0.00167748
Heightened Def Con from 0.00168131 to 0.00168132
Heightened Def Con from 0.00168898 to 0.00168899
Heightened Def Con from 0.00169665 to 0.00169666
Heightened Def Con from 0.00170049 to 0.00170049
Heightened Def Con from 0.00170432 to 0.00170432
Heightened Def Con from 0.00170815 to 0.00170816
Heightened Def Con from 0.00171199 to 0.00171199
Heightened Def Con from 0.00171946 to 0.00171946
Heightened Def Con from 0.00172349 to 0.00172349
Heightened Def Con from 0.00173116 to 0.00173116
Heightened Def Con from 0.00173499 to 0.001735
Heightened Def Con from 0.00173883 to 0.00173883
Heightened Def Con from 0.0017465 to 0.0017465
Heightened Def Con from 0.001758 to 0.001758
Heightened Def Con from 0.00176183 to 0.00176184
Heightened Def Con from 0.00176567 to 0.00176567
Heightened Def Con from 0.00178101 to 0.00178101
Heightened Def Con from 0.00178484 to 0.00178485
Heightened Def Con from 0.00179635 to 0.00179635
Heightened Def Con from 0.00180785 to 0.00180785
Heightened Def Con from 0.00181168 to 0.00181169
Heightened Def Con from 0.00181936 to 0.00181936
Heightened Def Con from 0.00182319 to 0.00182319
Heightened Def Con from 0.00183086 to 0.00183086
Heightened Def Con from 0.00183469 to 0.0018347
Heightened Def Con from 0.00183852 to 0.00183853
Heightened Def Con from 0.00184236 to 0.00184236
Heightened Def Con from 0.00184619 to 0.0018462
Heightened Def Con from 0.00185003 to 0.00185003
Heightened Def Con from 0.00185386 to 0.00185387
Heightened Def Con from 0.00187303 to 0.00187304
Heightened Def Con from 0.00187687 to 0.00187687
Heightened Def Con from 0.0018805 to 0.00188051
Heightened Def Con from 0.0018807 to 0.00188071
Heightened Def Con from 0.00188454 to 0.00188454
Heightened Def Con from 0.00188837 to 0.00188838
Heightened Def Con from 0.00190371 to 0.00190372
Heightened Def Con from 0.00190755 to 0.00190755
Heightened Def Con from 0.00191905 to 0.00191905
Heightened Def Con from 0.00192288 to 0.00192289
Heightened Def Con from 0.00192672 to 0.00192672
Heightened Def Con from 0.00193055 to 0.00193056
Heightened Def Con from 0.00194206 to 0.00194206
Heightened Def Con from 0.00194589 to 0.00194589
Heightened Def Con from 0.00195356 to 0.00195356
Heightened Def Con from 0.00195739 to 0.0019574
Heightened Def Con from 0.00196123 to 0.00196123
Heightened Def Con from 0.00196506 to 0.00196507
Heightened Def Con from 0.0019804 to 0.0019804
Heightened Def Con from 0.00198423 to 0.00198424
Heightened Def Con from 0.00198807 to 0.00198807
Heightened Def Con from 0.0019919 to 0.00199191
Heightened Def Con from 0.00199957 to 0.00199957
Heightened Def Con from 0.0020034 to 0.00200341
Heightened Def Con from 0.00200724 to 0.00200724
Heightened Def Con from 0.00201491 to 0.00201491
Heightened Def Con from 0.00202641 to 0.00202641
Heightened Def Con from 0.00203024 to 0.00203025
Heightened Def Con from 0.00203408 to 0.00203408
Heightened Def Con from 0.00203791 to 0.00203792
Heightened Def Con from 0.00204175 to 0.00204175
Heightened Def Con from 0.00204941 to 0.00204942
Heightened Def Con from 0.00206475 to 0.00206476
Heightened Def Con from 0.00208393 to 0.00208393
Heightened Def Con from 0.00208776 to 0.00208776
Heightened Def Con from 0.00209159 to 0.0020916
Heightened Def Con from 0.00210693 to 0.00210693
Heightened Def Con from 0.00211076 to 0.00211077
Heightened Def Con from 0.0021146 to 0.0021146
Heightened Def Con from 0.00212227 to 0.00212227
Heightened Def Con from 0.0021261 to 0.0021261
Heightened Def Con from 0.0021376 to 0.00213761
Heightened Def Con from 0.00214527 to 0.00214528
Heightened Def Con from 0.00214911 to 0.00214911
Heightened Def Con from 0.00216445 to 0.00216445
Heightened Def Con from 0.00216808 to 0.00216809
Heightened Def Con from 0.00217192 to 0.00217192
Heightened Def Con from 0.00217212 to 0.00217212
Heightened Def Con from 0.00217595 to 0.00217595
Heightened Def Con from 0.00218745 to 0.00218746
Heightened Def Con from 0.00219129 to 0.00219129
Heightened Def Con from 0.00220279 to 0.00220279
Heightened Def Con from 0.00221429 to 0.0022143
Heightened Def Con from 0.00221813 to 0.00221813
Heightened Def Con from 0.00222196 to 0.00222197
Heightened Def Con from 0.00223347 to 0.00223347
Heightened Def Con from 0.0022373 to 0.00223731
Heightened Def Con from 0.00224881 to 0.00224881
Heightened Def Con from 0.00225264 to 0.00225265
Heightened Def Con from 0.00225648 to 0.00225648
Heightened Def Con from 0.00226031 to 0.00226031
Heightened Def Con from 0.00226414 to 0.00226415
Heightened Def Con from 0.00227948 to 0.00227949
Heightened Def Con from 0.00229482 to 0.00229482
Heightened Def Con from 0.00229845 to 0.00229846
Heightened Def Con from 0.00230249 to 0.00230249
Heightened Def Con from 0.00230632 to 0.00230633
Heightened Def Con from 0.00231016 to 0.00231016
Heightened Def Con from 0.0023138 to 0.0023138
Heightened Def Con from 0.00231399 to 0.002314
Heightened Def Con from 0.00232166 to 0.00232167
Heightened Def Con from 0.00232933 to 0.00232934
Heightened Def Con from 0.00233317 to 0.00233317
Heightened Def Con from 0.00234851 to 0.00234851
Heightened Def Con from 0.00235617 to 0.00235618
Heightened Def Con from 0.00236001 to 0.00236001
Heightened Def Con from 0.00237151 to 0.00237152
Heightened Def Con from 0.00237535 to 0.00237535
Heightened Def Con from 0.00237918 to 0.00237919
Heightened Def Con from 0.00238302 to 0.00238302
Heightened Def Con from 0.00239432 to 0.00239433
Heightened Def Con from 0.00240219 to 0.00240219
Heightened Def Con from 0.00240986 to 0.00240986
Heightened Def Con from 0.00241369 to 0.0024137
Heightened Def Con from 0.00242136 to 0.00242137
Heightened Def Con from 0.00242903 to 0.00242903
Heightened Def Con from 0.0024367 to 0.0024367
Heightened Def Con from 0.0024482 to 0.00244821
Heightened Def Con from 0.00246737 to 0.00246738
Heightened Def Con from 0.00248655 to 0.00248655
Heightened Def Con from 0.00249422 to 0.00249422
Heightened Def Con from 0.00249805 to 0.00249805
Heightened Def Con from 0.00250572 to 0.00250573
Heightened Def Con from 0.00250956 to 0.00250956
Heightened Def Con from 0.00252873 to 0.00252873
Heightened Def Con from 0.00253256 to 0.00253257
Heightened Def Con from 0.00254023 to 0.00254023
Heightened Def Con from 0.00254406 to 0.00254407
Heightened Def Con from 0.00255557 to 0.00255557
Heightened Def Con from 0.0025594 to 0.00255941
Heightened Def Con from 0.00256324 to 0.00256324
Heightened Def Con from 0.00256688 to 0.00256688
Heightened Def Con from 0.00256707 to 0.00256708
Heightened Def Con from 0.00257091 to 0.00257091
Heightened Def Con from 0.00257858 to 0.00257858
Heightened Def Con from 0.00258241 to 0.00258242
Heightened Def Con from 0.00258624 to 0.00258625
Heightened Def Con from 0.00260925 to 0.00260926
Heightened Def Con from 0.00262843 to 0.00262843
Heightened Def Con from 0.0026361 to 0.0026361
Heightened Def Con from 0.00265527 to 0.00265527
Heightened Def Con from 0.0026591 to 0.0026591
Heightened Def Con from 0.00266293 to 0.00266294
Heightened Def Con from 0.00266677 to 0.00266677
Heightened Def Con from 0.0026706 to 0.00267061
Heightened Def Con from 0.00267827 to 0.00267828
Heightened Def Con from 0.00268978 to 0.00268978
Heightened Def Con from 0.00270108 to 0.00270108
Heightened Def Con from 0.00270511 to 0.00270512
Heightened Def Con from 0.00270895 to 0.00270895
Heightened Def Con from 0.00271661 to 0.00271662
Heightened Def Con from 0.00272428 to 0.00272429
Heightened Def Con from 0.00272812 to 0.00272812
Heightened Def Con from 0.00273579 to 0.00273579
Heightened Def Con from 0.00274729 to 0.0027473
Heightened Def Con from 0.00275879 to 0.0027588
Heightened Def Con from 0.00276263 to 0.00276263
Heightened Def Con from 0.00276647 to 0.00276647
Heightened Def Con from 0.00277797 to 0.00277797
Heightened Def Con from 0.0027818 to 0.00278181
Heightened Def Con from 0.00280481 to 0.00280481
Heightened Def Con from 0.00280865 to 0.00280865
Heightened Def Con from 0.00281631 to 0.00281632
Heightened Def Con from 0.00282398 to 0.00282399
Heightened Def Con from 0.00282781 to 0.00282782
Heightened Def Con from 0.00283165 to 0.00283165
Heightened Def Con from 0.00285082 to 0.00285082
Heightened Def Con from 0.00285466 to 0.00285466
Heightened Def Con from 0.00285849 to 0.00285849
Heightened Def Con from 0.00287766 to 0.00287767
Heightened Def Con from 0.00288533 to 0.00288534
Heightened Def Con from 0.00288917 to 0.00288917
Heightened Def Con from 0.00290067 to 0.00290067
Heightened Def Con from 0.00291217 to 0.00291218
Heightened Def Con from 0.00291984 to 0.00291985
Heightened Def Con from 0.00292368 to 0.00292368
Heightened Def Con from 0.00294285 to 0.00294285
Heightened Def Con from 0.00294668 to 0.00294669
Heightened Def Con from 0.00295435 to 0.00295436
Heightened Def Con from 0.00296586 to 0.00296586
Heightened Def Con from 0.00298119 to 0.0029812
Heightened Def Con from 0.00298886 to 0.00298886
Heightened Def Con from 0.0029927 to 0.0029927
Heightened Def Con from 0.0030042 to 0.0030042
Heightened Def Con from 0.00300803 to 0.00300804
Heightened Def Con from 0.00301187 to 0.00301187
Heightened Def Con from 0.00301954 to 0.00301954
Heightened Def Con from 0.00302337 to 0.00302338
Heightened Def Con from 0.00303104 to 0.00303105
Heightened Def Con from 0.00303488 to 0.00303488
Heightened Def Con from 0.00303871 to 0.00303872
Heightened Def Con from 0.00305022 to 0.00305022
Heightened Def Con from 0.00305405 to 0.00305405
Heightened Def Con from 0.00305788 to 0.00305789
Heightened Def Con from 0.00306555 to 0.00306556
Heightened Def Con from 0.00306939 to 0.00306939
Heightened Def Con from 0.00307322 to 0.00307323
Heightened Def Con from 0.00308856 to 0.00308856
Heightened Def Con from 0.00309623 to 0.00309623
Heightened Def Con from 0.00310006 to 0.00310007
Heightened Def Con from 0.00311156 to 0.00311157
Heightened Def Con from 0.00311924 to 0.00311924
Heightened Def Con from 0.00313074 to 0.00313074
Heightened Def Con from 0.00313457 to 0.00313458
Heightened Def Con from 0.00314224 to 0.00314225
Heightened Def Con from 0.00314991 to 0.00314992
Heightened Def Con from 0.00315375 to 0.00315375
Heightened Def Con from 0.00315758 to 0.00315759
Heightened Def Con from 0.00316908 to 0.00316909
Heightened Def Con from 0.00317292 to 0.00317292
Heightened Def Con from 0.00318442 to 0.00318443
Heightened Def Con from 0.00318826 to 0.00318826
Heightened Def Con from 0.00319976 to 0.00319976
Heightened Def Con from 0.00320359 to 0.0032036
Heightened Def Con from 0.0032151 to 0.0032151
Heightened Def Con from 0.0032266 to 0.0032266
Heightened Def Con from 0.00323043 to 0.00323044
Heightened Def Con from 0.0032381 to 0.00323811
Heightened Def Con from 0.00325344 to 0.00325345
Heightened Def Con from 0.00325728 to 0.00325728
Heightened Def Con from 0.00326111 to 0.00326112
Heightened Def Con from 0.00326495 to 0.00326495
Heightened Def Con from 0.00327261 to 0.00327262
Heightened Def Con from 0.00328412 to 0.00328412
Heightened Def Con from 0.00329178 to 0.00329179
Heightened Def Con from 0.00329562 to 0.00329562
Heightened Def Con from 0.00329945 to 0.00329946
Heightened Def Con from 0.00330712 to 0.00330713
Heightened Def Con from 0.00331096 to 0.00331096
Heightened Def Con from 0.00331862 to 0.00331863
Heightened Def Con from 0.00332246 to 0.00332246
Heightened Def Con from 0.00332629 to 0.0033263
Heightened Def Con from 0.0033378 to 0.0033378
Heightened Def Con from 0.0033493 to 0.0033493
Heightened Def Con from 0.00335697 to 0.00335697
Heightened Def Con from 0.0033608 to 0.0033608
Heightened Def Con from 0.00336443 to 0.00336444
Heightened Def Con from 0.00337614 to 0.00337614
Heightened Def Con from 0.00338381 to 0.00338381
Heightened Def Con from 0.00338764 to 0.00338765
Heightened Def Con from 0.00339148 to 0.00339148
Heightened Def Con from 0.00339531 to 0.00339532
Heightened Def Con from 0.00339915 to 0.00339915
Heightened Def Con from 0.00340681 to 0.00340682
Heightened Def Con from 0.00341065 to 0.00341065
Heightened Def Con from 0.00342599 to 0.00342599
Heightened Def Con from 0.00342962 to 0.00342963
Heightened Def Con from 0.00343366 to 0.00343366
Heightened Def Con from 0.00344516 to 0.00344517
Heightened Def Con from 0.00345667 to 0.00345667
Heightened Def Con from 0.0034605 to 0.00346051
Heightened Def Con from 0.00347584 to 0.00347584
Heightened Def Con from 0.00348351 to 0.00348351
Heightened Def Con from 0.00351035 to 0.00351035
Heightened Def Con from 0.00352185 to 0.00352186
Heightened Def Con from 0.00352569 to 0.00352569
Heightened Def Con from 0.00353719 to 0.00353719
Heightened Def Con from 0.00354466 to 0.00354466
Heightened Def Con from 0.00354486 to 0.00354486
Heightened Def Con from 0.00354869 to 0.0035487
Heightened Def Con from 0.00355253 to 0.00355253
Heightened Def Con from 0.00355636 to 0.00355637
Heightened Def Con from 0.00357534 to 0.00357534
Heightened Def Con from 0.00357554 to 0.00357554
Heightened Def Con from 0.00357937 to 0.00357938
Heightened Def Con from 0.00359471 to 0.00359471
Heightened Def Con from 0.00360238 to 0.00360238
Heightened Def Con from 0.00360621 to 0.00360622
Heightened Def Con from 0.00361388 to 0.00361389
Heightened Def Con from 0.00362136 to 0.00362137
Heightened Def Con from 0.00362539 to 0.00362539
Heightened Def Con from 0.00363689 to 0.0036369
Heightened Def Con from 0.00366353 to 0.00366354
Heightened Def Con from 0.00366373 to 0.00366374
Heightened Def Con from 0.00366757 to 0.00366757
Heightened Def Con from 0.00368291 to 0.00368291
Heightened Def Con from 0.00369804 to 0.00369805
Heightened Def Con from 0.00372508 to 0.00372509
Heightened Def Con from 0.00372892 to 0.00372892
Heightened Def Con from 0.00373275 to 0.00373276
Heightened Def Con from 0.00373659 to 0.00373659
Heightened Def Con from 0.00375576 to 0.00375576
Heightened Def Con from 0.00375959 to 0.0037596
Heightened Def Con from 0.00376726 to 0.00376727
Heightened Def Con from 0.0037711 to 0.0037711
Heightened Def Con from 0.00377877 to 0.00377877
Heightened Def Con from 0.00379027 to 0.00379028
Heightened Def Con from 0.00379794 to 0.00379795
Heightened Def Con from 0.00380178 to 0.00380178
Heightened Def Con from 0.00381328 to 0.00381329
Heightened Def Con from 0.00382095 to 0.00382095
Heightened Def Con from 0.00382478 to 0.00382479
Heightened Def Con from 0.00382862 to 0.00382862
Heightened Def Con from 0.00385163 to 0.00385163
Heightened Def Con from 0.00385526 to 0.00385527
Heightened Def Con from 0.00387464 to 0.00387464
Heightened Def Con from 0.00387847 to 0.00387848
Heightened Def Con from 0.00388231 to 0.00388231
Heightened Def Con from 0.00388998 to 0.00388998
Heightened Def Con from 0.00390532 to 0.00390532
Heightened Def Con from 0.00391299 to 0.00391299
Heightened Def Con from 0.00391682 to 0.00391682
Heightened Def Con from 0.00392449 to 0.00392449
Heightened Def Con from 0.00392832 to 0.00392833
Heightened Def Con from 0.00393216 to 0.00393216
Heightened Def Con from 0.00393599 to 0.003936
Heightened Def Con from 0.00393983 to 0.00393983
Heightened Def Con from 0.003959 to 0.003959
Heightened Def Con from 0.00396283 to 0.00396284
Heightened Def Con from 0.0039705 to 0.00397051
Heightened Def Con from 0.00397434 to 0.00397434
Heightened Def Con from 0.00397817 to 0.00397818
Heightened Def Con from 0.00399735 to 0.00399735
Heightened Def Con from 0.00400118 to 0.00400119
Heightened Def Con from 0.00400502 to 0.00400502
Heightened Def Con from 0.00401269 to 0.00401269
Heightened Def Con from 0.00401652 to 0.00401652
Heightened Def Con from 0.00402035 to 0.00402036
Heightened Def Con from 0.00402802 to 0.00402803
Heightened Def Con from 0.0040587 to 0.0040587
Heightened Def Con from 0.00406637 to 0.00406637
Heightened Def Con from 0.0040702 to 0.0040702
Heightened Def Con from 0.00408554 to 0.00408554
Heightened Def Con from 0.00408937 to 0.00408938
Heightened Def Con from 0.00409704 to 0.00409705
Heightened Def Con from 0.00410088 to 0.00410088
Heightened Def Con from 0.00410471 to 0.00410472
Heightened Def Con from 0.00410855 to 0.00410855
Heightened Def Con from 0.00411238 to 0.00411239
Heightened Def Con from 0.00412005 to 0.00412005
Heightened Def Con from 0.00414306 to 0.00414306
Heightened Def Con from 0.00415072 to 0.00415073
Heightened Def Con from 0.00415839 to 0.0041584
Heightened Def Con from 0.00416223 to 0.00416223
Heightened Def Con from 0.00417737 to 0.00417737
Heightened Def Con from 0.0041814 to 0.0041814
Heightened Def Con from 0.0041929 to 0.0041929
Heightened Def Con from 0.00420057 to 0.00420057
Heightened Def Con from 0.0042044 to 0.00420441
Heightened Def Con from 0.00421591 to 0.00421591
Heightened Def Con from 0.00421974 to 0.00421974
Heightened Def Con from 0.00423508 to 0.00423508
Heightened Def Con from 0.00424274 to 0.00424275
Heightened Def Con from 0.00424658 to 0.00424658
Heightened Def Con from 0.00425042 to 0.00425042
Heightened Def Con from 0.00426192 to 0.00426192
Heightened Def Con from 0.00427342 to 0.00427342
Heightened Def Con from 0.00428109 to 0.00428109
Heightened Def Con from 0.00431176 to 0.00431177
Heightened Def Con from 0.0043271 to 0.00432711
Heightened Def Con from 0.00433861 to 0.00433861
Heightened Def Con from 0.00435394 to 0.00435395
Heightened Def Con from 0.00437312 to 0.00437312
Heightened Def Con from 0.00438078 to 0.00438079
Heightened Def Con from 0.00438462 to 0.00438463
Heightened Def Con from 0.00439996 to 0.00439996
Heightened Def Con from 0.00440763 to 0.00440763
Heightened Def Con from 0.00441146 to 0.00441147
Heightened Def Con from 0.0044153 to 0.0044153
Heightened Def Con from 0.0044383 to 0.0044383
Heightened Def Con from 0.00444214 to 0.00444214
Heightened Def Con from 0.00446131 to 0.00446131
Heightened Def Con from 0.00446514 to 0.00446515
Heightened Def Con from 0.00446898 to 0.00446898
Heightened Def Con from 0.00447281 to 0.00447282
Heightened Def Con from 0.00447664 to 0.00447665
Heightened Def Con from 0.00448431 to 0.00448432
Heightened Def Con from 0.00448795 to 0.00448796
Heightened Def Con from 0.00449198 to 0.00449199
Heightened Def Con from 0.00449562 to 0.00449562
Heightened Def Con from 0.00449582 to 0.00449582
Heightened Def Con from 0.00450732 to 0.00450733
Heightened Def Con from 0.00451116 to 0.00451116
Heightened Def Con from 0.00453416 to 0.00453416
Heightened Def Con from 0.0045495 to 0.00454951
Heightened Def Con from 0.00455717 to 0.00455717
Heightened Def Con from 0.00457251 to 0.00457251
Heightened Def Con from 0.00458018 to 0.00458018
Heightened Def Con from 0.00458785 to 0.00458785
Heightened Def Con from 0.00459935 to 0.00459935
Heightened Def Con from 0.00460318 to 0.00460319
Heightened Def Con from 0.00461085 to 0.00461086
Heightened Def Con from 0.00461469 to 0.00461469
Heightened Def Con from 0.00461852 to 0.00461853
Heightened Def Con from 0.00462236 to 0.00462236
Heightened Def Con from 0.00463769 to 0.0046377
Heightened Def Con from 0.00464536 to 0.00464537
Heightened Def Con from 0.0046492 to 0.0046492
Heightened Def Con from 0.00465303 to 0.00465304
Heightened Def Con from 0.00465687 to 0.00465687
Heightened Def Con from 0.0046607 to 0.0046607
Heightened Def Con from 0.00466453 to 0.00466454
Heightened Def Con from 0.00466837 to 0.00466837
Heightened Def Con from 0.00467604 to 0.00467604
Heightened Def Con from 0.00467987 to 0.00467988
Heightened Def Con from 0.00469521 to 0.00469521
Heightened Def Con from 0.00469904 to 0.00469905
Heightened Def Con from 0.00470671 to 0.00470672
Heightened Def Con from 0.00471055 to 0.00471055
Heightened Def Con from 0.00471438 to 0.00471439
Heightened Def Con from 0.00471822 to 0.00471822
Heightened Def Con from 0.00473356 to 0.00473356
Heightened Def Con from 0.00474506 to 0.00474506
Heightened Def Con from 0.0047604 to 0.0047604
Heightened Def Con from 0.0047719 to 0.00477191
Heightened Def Con from 0.00477573 to 0.00477574
Heightened Def Con from 0.00479107 to 0.00479108
Heightened Def Con from 0.00479491 to 0.00479491
Heightened Def Con from 0.00480258 to 0.00480258
Heightened Def Con from 0.00481005 to 0.00481005
Heightened Def Con from 0.00481025 to 0.00481025
Heightened Def Con from 0.00481408 to 0.00481409
Heightened Def Con from 0.00483306 to 0.00483306
Heightened Def Con from 0.00483325 to 0.00483326
Heightened Def Con from 0.00483709 to 0.00483709
Heightened Def Con from 0.00484092 to 0.00484093
Heightened Def Con from 0.00484476 to 0.00484476
Heightened Def Con from 0.00484859 to 0.0048486
Heightened Def Con from 0.00485243 to 0.00485243
Heightened Def Con from 0.0048601 to 0.0048601
Heightened Def Con from 0.00486777 to 0.00486777
Heightened Def Con from 0.00487544 to 0.00487544
Heightened Def Con from 0.00487907 to 0.00487908
Heightened Def Con from 0.00488694 to 0.00488695
Heightened Def Con from 0.00490228 to 0.00490228
Heightened Def Con from 0.00490612 to 0.00490612
Heightened Def Con from 0.00490995 to 0.00490995
Heightened Def Con from 0.00491379 to 0.00491379
Heightened Def Con from 0.00491762 to 0.00491762
Heightened Def Con from 0.00492529 to 0.00492529
Heightened Def Con from 0.00493276 to 0.00493277
Heightened Def Con from 0.00493679 to 0.0049368
Heightened Def Con from 0.00494446 to 0.00494447
Heightened Def Con from 0.0049483 to 0.0049483
Heightened Def Con from 0.0049598 to 0.00495981
Heightened Def Con from 0.00496364 to 0.00496364
Heightened Def Con from 0.00496747 to 0.00496748
Heightened Def Con from 0.00497514 to 0.00497514
Heightened Def Con from 0.00498281 to 0.00498281
Heightened Def Con from 0.00500582 to 0.00500582
Heightened Def Con from 0.00501329 to 0.0050133
Heightened Def Con from 0.00501349 to 0.00501349
Heightened Def Con from 0.00502499 to 0.00502499
Heightened Def Con from 0.00504033 to 0.00504033
Heightened Def Con from 0.00504799 to 0.005048
Heightened Def Con from 0.0050595 to 0.0050595
Heightened Def Con from 0.00506716 to 0.00506717
Heightened Def Con from 0.005071 to 0.005071
Heightened Def Con from 0.00507484 to 0.00507484
Heightened Def Con from 0.00507867 to 0.00507867
Heightened Def Con from 0.00509017 to 0.00509018
Heightened Def Con from 0.00509401 to 0.00509401
Heightened Def Con from 0.00510934 to 0.00510935
Heightened Def Con from 0.00511318 to 0.00511318
Heightened Def Con from 0.00512468 to 0.00512469
Heightened Def Con from 0.00512832 to 0.00512833
Heightened Def Con from 0.00513235 to 0.00513236
Heightened Def Con from 0.00513982 to 0.00513983
Heightened Def Con from 0.00515133 to 0.00515133
Heightened Def Con from 0.00515536 to 0.00515536
Heightened Def Con from 0.00515919 to 0.0051592
Heightened Def Con from 0.00516686 to 0.00516687
Heightened Def Con from 0.0051707 to 0.0051707
Heightened Def Con from 0.00517453 to 0.00517454
Heightened Def Con from 0.00517837 to 0.00517837
Heightened Def Con from 0.00519371 to 0.00519371
Heightened Def Con from 0.00520138 to 0.00520138
Heightened Def Con from 0.00522055 to 0.00522056
Heightened Def Con from 0.00522438 to 0.00522439
Heightened Def Con from 0.00524739 to 0.00524739
Heightened Def Con from 0.00525122 to 0.00525123
Heightened Def Con from 0.00525889 to 0.0052589
Heightened Def Con from 0.00526273 to 0.00526273
Heightened Def Con from 0.0052704 to 0.0052704
Heightened Def Con from 0.00528573 to 0.00528574
Heightened Def Con from 0.00528957 to 0.00528957
Heightened Def Con from 0.00529341 to 0.00529341
Heightened Def Con from 0.00530108 to 0.00530108
Heightened Def Con from 0.00530491 to 0.00530491
Heightened Def Con from 0.00530875 to 0.00530875
Heightened Def Con from 0.00531641 to 0.00531642
Heightened Def Con from 0.00532025 to 0.00532025
Heightened Def Con from 0.00533942 to 0.00533942
Heightened Def Con from 0.00534325 to 0.00534326
Heightened Def Con from 0.00535859 to 0.00535859
Heightened Def Con from 0.00537009 to 0.0053701
Heightened Def Con from 0.00537393 to 0.00537393
Heightened Def Con from 0.00538543 to 0.00538543
Heightened Def Con from 0.00538926 to 0.00538927
Heightened Def Con from 0.0053931 to 0.0053931
Heightened Def Con from 0.00540077 to 0.00540077
Heightened Def Con from 0.00540824 to 0.00540824
Heightened Def Con from 0.00541227 to 0.00541228
Heightened Def Con from 0.00541994 to 0.00541995
Heightened Def Con from 0.00542378 to 0.00542378
Heightened Def Con from 0.00542761 to 0.00542761
Heightened Def Con from 0.00543125 to 0.00543125
Heightened Def Con from 0.00543144 to 0.00543145
Heightened Def Con from 0.00546595 to 0.00546596
Heightened Def Con from 0.00547362 to 0.00547363
Heightened Def Con from 0.00547746 to 0.00547746
Heightened Def Con from 0.00548513 to 0.00548513
Heightened Def Con from 0.00548896 to 0.00548896
Heightened Def Con from 0.00549663 to 0.00549663
Heightened Def Con from 0.0055043 to 0.0055043
Heightened Def Con from 0.00551196 to 0.00551197
Heightened Def Con from 0.0055158 to 0.0055158
Heightened Def Con from 0.0055273 to 0.00552731
Heightened Def Con from 0.00554264 to 0.00554265
Heightened Def Con from 0.00554648 to 0.00554648
Heightened Def Con from 0.00555031 to 0.00555031
Heightened Def Con from 0.00555395 to 0.00555395
Heightened Def Con from 0.00555414 to 0.00555415
Heightened Def Con from 0.00555798 to 0.00555798
Heightened Def Con from 0.00556181 to 0.00556182
Heightened Def Con from 0.00556928 to 0.00556929
Heightened Def Con from 0.00556948 to 0.00556949
Heightened Def Con from 0.00557332 to 0.00557332
Heightened Def Con from 0.00558482 to 0.00558482
Heightened Def Con from 0.00558865 to 0.00558866
Heightened Def Con from 0.00559249 to 0.00559249
Heightened Def Con from 0.00560016 to 0.00560016
Heightened Def Con from 0.00560399 to 0.00560399
Heightened Def Con from 0.00561549 to 0.0056155
Heightened Def Con from 0.00561933 to 0.00561933
Heightened Def Con from 0.005627 to 0.00562701
Heightened Def Con from 0.00563084 to 0.00563084
Heightened Def Con from 0.00563467 to 0.00563467
Heightened Def Con from 0.00563851 to 0.00563851
Heightened Def Con from 0.00564234 to 0.00564234
Heightened Def Con from 0.00565001 to 0.00565001
Heightened Def Con from 0.00565768 to 0.00565768
Heightened Def Con from 0.00566151 to 0.00566152
Heightened Def Con from 0.00566535 to 0.00566535
Heightened Def Con from 0.00568068 to 0.00568069
Heightened Def Con from 0.00568452 to 0.00568452
Heightened Def Con from 0.00568835 to 0.00568836
Heightened Def Con from 0.00569219 to 0.00569219
Heightened Def Con from 0.00569602 to 0.00569603
Heightened Def Con from 0.00569966 to 0.00569967
Heightened Def Con from 0.00570369 to 0.0057037
Heightened Def Con from 0.00570753 to 0.00570753
Heightened Def Con from 0.00571136 to 0.00571137
Heightened Def Con from 0.0057152 to 0.0057152
Heightened Def Con from 0.00572287 to 0.00572287
Heightened Def Con from 0.00573437 to 0.00573438
Heightened Def Con from 0.00573821 to 0.00573821
Heightened Def Con from 0.00574588 to 0.00574588
Heightened Def Con from 0.00575738 to 0.00575738
Heightened Def Con from 0.00576505 to 0.00576505
Heightened Def Con from 0.00576888 to 0.00576889
Heightened Def Con from 0.00578422 to 0.00578423
Heightened Def Con from 0.00579189 to 0.0057919
Heightened Def Con from 0.00579956 to 0.00579956
Heightened Def Con from 0.00580339 to 0.0058034
Heightened Def Con from 0.00580723 to 0.00580723
Heightened Def Con from 0.0058149 to 0.0058149
Heightened Def Con from 0.00581873 to 0.00581874
Heightened Def Con from 0.00582257 to 0.00582257
Heightened Def Con from 0.00583791 to 0.00583791
Heightened Def Con from 0.00584941 to 0.00584942
Heightened Def Con from 0.00586839 to 0.00586839
Heightened Def Con from 0.00587625 to 0.00587626
Heightened Def Con from 0.00588009 to 0.00588009
Heightened Def Con from 0.00590693 to 0.00590693
Heightened Def Con from 0.00591076 to 0.00591077
Heightened Def Con from 0.0059146 to 0.0059146
Heightened Def Con from 0.00591843 to 0.00591844
Heightened Def Con from 0.00592227 to 0.00592227
Heightened Def Con from 0.00592994 to 0.00592994
Heightened Def Con from 0.00594911 to 0.00594911
Heightened Def Con from 0.00595678 to 0.00595678
Heightened Def Con from 0.00596061 to 0.00596061
Heightened Def Con from 0.00596444 to 0.00596445
Heightened Def Con from 0.00597211 to 0.00597212
Heightened Def Con from 0.00597595 to 0.00597595
Heightened Def Con from 0.00598725 to 0.00598726
Heightened Def Con from 0.00598745 to 0.00598745
Heightened Def Con from 0.00599128 to 0.00599129
Heightened Def Con from 0.00600662 to 0.00600663
Heightened Def Con from 0.00601046 to 0.00601046
Heightened Def Con from 0.00601793 to 0.00601794
Heightened Def Con from 0.00601813 to 0.00601813
Heightened Def Con from 0.00602196 to 0.00602196
Heightened Def Con from 0.00603346 to 0.00603347
Heightened Def Con from 0.0060373 to 0.0060373
Heightened Def Con from 0.00604093 to 0.00604094
Heightened Def Con from 0.00604113 to 0.00604114
Heightened Def Con from 0.00604497 to 0.00604497
Heightened Def Con from 0.00605647 to 0.00605647
Heightened Def Con from 0.0060603 to 0.00606031
Heightened Def Con from 0.00606414 to 0.00606414
Heightened Def Con from 0.00606797 to 0.00606798
Heightened Def Con from 0.00607181 to 0.00607181
Heightened Def Con from 0.00607564 to 0.00607564
Heightened Def Con from 0.00607947 to 0.00607948
Heightened Def Con from 0.00608331 to 0.00608331
Heightened Def Con from 0.00609865 to 0.00609865
Heightened Def Con from 0.00610248 to 0.00610249
Heightened Def Con from 0.00611015 to 0.00611015
Heightened Def Con from 0.00611782 to 0.00611783
Heightened Def Con from 0.00612932 to 0.00612933
Heightened Def Con from 0.00613316 to 0.00613316
Heightened Def Con from 0.00613699 to 0.006137
Heightened Def Con from 0.00614466 to 0.00614466
Heightened Def Con from 0.00614849 to 0.0061485
Heightened Def Con from 0.00615233 to 0.00615233
Heightened Def Con from 0.00616383 to 0.00616384
Heightened Def Con from 0.00617917 to 0.00617917
Heightened Def Con from 0.006183 to 0.00618301
Heightened Def Con from 0.00619067 to 0.00619068
Heightened Def Con from 0.00619834 to 0.00619835
Heightened Def Con from 0.00620218 to 0.00620218
Heightened Def Con from 0.00620582 to 0.00620582
Heightened Def Con from 0.00620601 to 0.00620601
Heightened Def Con from 0.00620984 to 0.00620985
Heightened Def Con from 0.00621752 to 0.00621752
Heightened Def Con from 0.00623285 to 0.00623286
Heightened Def Con from 0.00624799 to 0.006248
Heightened Def Con from 0.00624819 to 0.00624819
Heightened Def Con from 0.00625202 to 0.00625203
Heightened Def Con from 0.00625586 to 0.00625586
Heightened Def Con from 0.00626736 to 0.00626737
Heightened Def Con from 0.00627503 to 0.00627504
Heightened Def Con from 0.0062827 to 0.0062827
Heightened Def Con from 0.00629037 to 0.00629037
Heightened Def Con from 0.0062942 to 0.00629421
Heightened Def Con from 0.00630187 to 0.00630188
Heightened Def Con from 0.00630571 to 0.00630571
Heightened Def Con from 0.00631721 to 0.00631721
Heightened Def Con from 0.00632104 to 0.00632105
Heightened Def Con from 0.00634405 to 0.00634406
Heightened Def Con from 0.00634789 to 0.00634789
Heightened Def Con from 0.00635939 to 0.00635939
Heightened Def Con from 0.00636323 to 0.00636323
Heightened Def Con from 0.0063709 to 0.0063709
Heightened Def Con from 0.00637473 to 0.00637473
Heightened Def Con from 0.00637857 to 0.00637857
Heightened Def Con from 0.0063824 to 0.00638241
Heightened Def Con from 0.00638623 to 0.00638624
Heightened Def Con from 0.0063937 to 0.00639371
Heightened Def Con from 0.0063939 to 0.00639391
Heightened Def Con from 0.00640541 to 0.00640541
Heightened Def Con from 0.00640924 to 0.00640924
Heightened Def Con from 0.00641307 to 0.00641308
Heightened Def Con from 0.00641691 to 0.00641691
Heightened Def Con from 0.00642458 to 0.00642458
Heightened Def Con from 0.00642841 to 0.00642842
Heightened Def Con from 0.00644375 to 0.00644375
Heightened Def Con from 0.00644739 to 0.00644739
Heightened Def Con from 0.00644758 to 0.00644759
Heightened Def Con from 0.00646656 to 0.00646656
Heightened Def Con from 0.00646676 to 0.00646676
Heightened Def Con from 0.00647443 to 0.00647443
Heightened Def Con from 0.00647826 to 0.00647827
Heightened Def Con from 0.00648593 to 0.00648594
Heightened Def Con from 0.0064936 to 0.00649361
Heightened Def Con from 0.00649744 to 0.00649744
Heightened Def Con from 0.00650127 to 0.00650127
Heightened Def Con from 0.00652811 to 0.00652812
Heightened Def Con from 0.00653195 to 0.00653195
Heightened Def Con from 0.00653578 to 0.00653578
Heightened Def Con from 0.00654728 to 0.00654729
Heightened Def Con from 0.00655112 to 0.00655112
Heightened Def Con from 0.00657412 to 0.00657413
Heightened Def Con from 0.00658179 to 0.0065818
Heightened Def Con from 0.00658563 to 0.00658563
Heightened Def Con from 0.00660097 to 0.00660097
Heightened Def Con from 0.00661631 to 0.00661631
Heightened Def Con from 0.00662398 to 0.00662398
Heightened Def Con from 0.00662781 to 0.00662782
Heightened Def Con from 0.00663165 to 0.00663165
Heightened Def Con from 0.00664315 to 0.00664315
Heightened Def Con from 0.00664698 to 0.00664699
Heightened Def Con from 0.00665082 to 0.00665082
Heightened Def Con from 0.00666616 to 0.00666616
Heightened Def Con from 0.00668533 to 0.00668533
Heightened Def Con from 0.00668916 to 0.00668917
Heightened Def Con from 0.00670834 to 0.00670834
Heightened Def Con from 0.00671217 to 0.00671218
Heightened Def Con from 0.00672751 to 0.00672751
Heightened Def Con from 0.00673518 to 0.00673518
Heightened Def Con from 0.00673901 to 0.00673902
Heightened Def Con from 0.00675818 to 0.00675819
Heightened Def Con from 0.00676969 to 0.00676969
Heightened Def Con from 0.00677352 to 0.00677353
Heightened Def Con from 0.00678119 to 0.0067812
Heightened Def Con from 0.00678503 to 0.00678503
Heightened Def Con from 0.00678886 to 0.00678887
Heightened Def Con from 0.0067927 to 0.0067927
Heightened Def Con from 0.00679653 to 0.00679653
Heightened Def Con from 0.0068042 to 0.0068042
Heightened Def Con from 0.00680803 to 0.00680804
Heightened Def Con from 0.00681187 to 0.00681187
Heightened Def Con from 0.0068157 to 0.0068157
Heightened Def Con from 0.00681953 to 0.00681954
Heightened Def Con from 0.00683104 to 0.00683104
Heightened Def Con from 0.00683851 to 0.00683852
Heightened Def Con from 0.00685021 to 0.00685021
Heightened Def Con from 0.00686554 to 0.00686555
Heightened Def Con from 0.00686938 to 0.00686938
Heightened Def Con from 0.00687321 to 0.00687322
Heightened Def Con from 0.00687705 to 0.00687705
Heightened Def Con from 0.00688088 to 0.00688089
Heightened Def Con from 0.00688472 to 0.00688472
Heightened Def Con from 0.00688855 to 0.00688856
Heightened Def Con from 0.00689622 to 0.00689622
Heightened Def Con from 0.00690005 to 0.00690006
Heightened Def Con from 0.00691156 to 0.00691156
Heightened Def Con from 0.00691539 to 0.0069154
Heightened Def Con from 0.00691923 to 0.00691923
Heightened Def Con from 0.00692306 to 0.00692307
Heightened Def Con from 0.00693456 to 0.00693457
Heightened Def Con from 0.00694223 to 0.00694224
Heightened Def Con from 0.00695373 to 0.00695374
Heightened Def Con from 0.00696524 to 0.00696524
Heightened Def Con from 0.00696907 to 0.00696908
Heightened Def Con from 0.00697674 to 0.00697675
Heightened Def Con from 0.00698441 to 0.00698441
Heightened Def Con from 0.00698824 to 0.00698825
Heightened Def Con from 0.00699208 to 0.00699208
Heightened Def Con from 0.00699591 to 0.00699592
Heightened Def Con from 0.00700358 to 0.00700359
Heightened Def Con from 0.00702276 to 0.00702276
Heightened Def Con from 0.00702659 to 0.0070266
Heightened Def Con from 0.00703042 to 0.00703043
Heightened Def Con from 0.00703406 to 0.00703407
Heightened Def Con from 0.0070496 to 0.0070496
Heightened Def Con from 0.00705727 to 0.00705727
Heightened Def Con from 0.00706493 to 0.00706494
Heightened Def Con from 0.0070726 to 0.00707261
Heightened Def Con from 0.00708027 to 0.00708028
Heightened Def Con from 0.00708794 to 0.00708795
Heightened Def Con from 0.00709945 to 0.00709945
Heightened Def Con from 0.00710712 to 0.00710712
Heightened Def Con from 0.00711479 to 0.00711479
Heightened Def Con from 0.00713396 to 0.00713396
Heightened Def Con from 0.00715313 to 0.00715314
Heightened Def Con from 0.00715697 to 0.00715697
Heightened Def Con from 0.0071608 to 0.00716081
Heightened Def Con from 0.00716847 to 0.00716847
Heightened Def Con from 0.00717614 to 0.00717614
Heightened Def Con from 0.00717997 to 0.00717997
Heightened Def Con from 0.0071838 to 0.00718381
Heightened Def Con from 0.00718764 to 0.00718764
Heightened Def Con from 0.00720298 to 0.00720298
Heightened Def Con from 0.00721448 to 0.00721449
Heightened Def Con from 0.00722599 to 0.00722599
Heightened Def Con from 0.00724132 to 0.00724133
Heightened Def Con from 0.00724516 to 0.00724516
Heightened Def Con from 0.0072605 to 0.0072605
Heightened Def Con from 0.00726817 to 0.00726817
Heightened Def Con from 0.007272 to 0.007272
Heightened Def Con from 0.0072835 to 0.00728351
Heightened Def Con from 0.00728734 to 0.00728734
Heightened Def Con from 0.00729117 to 0.00729118
Heightened Def Con from 0.00731418 to 0.00731419
Heightened Def Con from 0.00731802 to 0.00731802
Heightened Def Con from 0.00732185 to 0.00732186
Heightened Def Con from 0.00732568 to 0.00732569
Heightened Def Con from 0.00732952 to 0.00732952
Heightened Def Con from 0.00734869 to 0.0073487
Heightened Def Con from 0.00735233 to 0.00735233
Heightened Def Con from 0.00736403 to 0.00736403
Heightened Def Con from 0.00736787 to 0.00736787
Heightened Def Con from 0.0073717 to 0.0073717
Heightened Def Con from 0.00737937 to 0.00737937
Heightened Def Con from 0.0073832 to 0.00738321
Heightened Def Con from 0.00738704 to 0.00738704
Heightened Def Con from 0.00740237 to 0.00740238
Heightened Def Con from 0.00741004 to 0.00741005
Heightened Def Con from 0.00742922 to 0.00742922
Heightened Def Con from 0.00743305 to 0.00743306
Heightened Def Con from 0.00744455 to 0.00744456
Heightened Def Con from 0.00745989 to 0.00745989
Heightened Def Con from 0.00746352 to 0.00746353
Heightened Def Con from 0.00747139 to 0.0074714
Heightened Def Con from 0.00750954 to 0.00750955
Heightened Def Con from 0.00751357 to 0.00751358
Heightened Def Con from 0.00751721 to 0.00751721
Heightened Def Con from 0.00751741 to 0.00751741
Heightened Def Con from 0.00752124 to 0.00752125
Heightened Def Con from 0.00753274 to 0.00753275
Heightened Def Con from 0.00755192 to 0.00755192
Heightened Def Con from 0.00755575 to 0.00755575
Heightened Def Con from 0.00755958 to 0.00755959
Heightened Def Con from 0.00756342 to 0.00756342
Heightened Def Con from 0.00756725 to 0.00756726
Heightened Def Con from 0.00757109 to 0.00757109
Heightened Def Con from 0.00757492 to 0.00757492
Heightened Def Con from 0.00757875 to 0.00757876
Heightened Def Con from 0.00759025 to 0.00759026
Heightened Def Con from 0.00759409 to 0.00759409
Heightened Def Con from 0.00759792 to 0.00759793
Heightened Def Con from 0.00760176 to 0.00760176
Heightened Def Con from 0.00760559 to 0.0076056
Heightened Def Con from 0.00760943 to 0.00760943
Heightened Def Con from 0.0076171 to 0.0076171
Heightened Def Con from 0.00762093 to 0.00762093
Heightened Def Con from 0.00763627 to 0.00763627
Heightened Def Con from 0.0076401 to 0.00764011
Heightened Def Con from 0.00764777 to 0.00764778
Heightened Def Con from 0.0076516 to 0.00765161
Heightened Def Con from 0.00765544 to 0.00765544
Heightened Def Con from 0.00767845 to 0.00767845
Heightened Def Con from 0.00768995 to 0.00768995
Heightened Def Con from 0.00770912 to 0.00770913
Heightened Def Con from 0.00771296 to 0.00771296
Heightened Def Con from 0.00771679 to 0.00771679
Heightened Def Con from 0.00772062 to 0.00772063
Heightened Def Con from 0.00772426 to 0.00772427
Heightened Def Con from 0.00772446 to 0.00772446
Heightened Def Con from 0.00772829 to 0.0077283
Heightened Def Con from 0.00773596 to 0.00773597
Heightened Def Con from 0.00774363 to 0.00774364
Heightened Def Con from 0.00774747 to 0.00774747
Heightened Def Con from 0.00775494 to 0.00775495
Heightened Def Con from 0.0077628 to 0.00776281
Heightened Def Con from 0.00777047 to 0.00777048
Heightened Def Con from 0.0077743 to 0.00777431
Heightened Def Con from 0.00778197 to 0.00778198
Heightened Def Con from 0.00778964 to 0.00778965
Heightened Def Con from 0.00779348 to 0.00779348
Heightened Def Con from 0.00780881 to 0.00780882
Heightened Def Con from 0.00782032 to 0.00782032
Heightened Def Con from 0.00783182 to 0.00783182
Heightened Def Con from 0.00783949 to 0.0078395
Heightened Def Con from 0.00784332 to 0.00784333
Heightened Def Con from 0.00785846 to 0.00785847
Heightened Def Con from 0.00785866 to 0.00785867
Heightened Def Con from 0.00786613 to 0.00786614
Heightened Def Con from 0.00786633 to 0.00786634
Heightened Def Con from 0.00787017 to 0.00787017
Heightened Def Con from 0.00787784 to 0.00787784
Heightened Def Con from 0.00788551 to 0.00788551
Heightened Def Con from 0.00789318 to 0.00789318
Heightened Def Con from 0.00789701 to 0.00789701
Heightened Def Con from 0.00790084 to 0.00790085
Heightened Def Con from 0.00790468 to 0.00790468
Heightened Def Con from 0.00790851 to 0.00790852
Heightened Def Con from 0.00792769 to 0.00792769
Heightened Def Con from 0.00793152 to 0.00793152
Heightened Def Con from 0.00794686 to 0.00794686
Heightened Def Con from 0.00795836 to 0.00795837
Heightened Def Con from 0.00796201 to 0.00796201
Heightened Def Con from 0.00796583 to 0.00796584
Heightened Def Con from 0.00796987 to 0.00796987
Heightened Def Con from 0.00798137 to 0.00798138
Heightened Def Con from 0.00798904 to 0.00798904
Heightened Def Con from 0.00799268 to 0.00799269
Heightened Def Con from 0.00799671 to 0.00799671
Heightened Def Con from 0.00800054 to 0.00800055
Heightened Def Con from 0.00800438 to 0.00800438
Heightened Def Con from 0.00800821 to 0.00800822
Heightened Def Con from 0.00801205 to 0.00801205
Heightened Def Con from 0.00801588 to 0.00801589
Heightened Def Con from 0.00803506 to 0.00803506
Heightened Def Con from 0.00803889 to 0.0080389
Heightened Def Con from 0.00804273 to 0.00804273
Heightened Def Con from 0.00804656 to 0.00804656
Heightened Def Con from 0.00805039 to 0.0080504
Heightened Def Con from 0.0080619 to 0.0080619
Heightened Def Con from 0.00807724 to 0.00807724
Heightened Def Con from 0.00809258 to 0.00809258
Heightened Def Con from 0.00810792 to 0.00810792
Heightened Def Con from 0.00811175 to 0.00811175
Heightened Def Con from 0.00812709 to 0.00812709
Heightened Def Con from 0.00813092 to 0.00813093
Heightened Def Con from 0.00814626 to 0.00814627
Heightened Def Con from 0.0081501 to 0.0081501
Heightened Def Con from 0.00816543 to 0.00816544
Heightened Def Con from 0.0081731 to 0.00817311
Heightened Def Con from 0.00818844 to 0.00818845
Heightened Def Con from 0.00819228 to 0.00819228
Heightened Def Con from 0.00819995 to 0.00819995
Heightened Def Con from 0.00821145 to 0.00821145
Heightened Def Con from 0.00822276 to 0.00822276
Heightened Def Con from 0.00822295 to 0.00822296
Heightened Def Con from 0.00823829 to 0.00823829
Heightened Def Con from 0.00824212 to 0.00824213
Heightened Def Con from 0.00824596 to 0.00824596
Heightened Def Con from 0.00825746 to 0.00825747
Heightened Def Con from 0.00828047 to 0.00828047
Heightened Def Con from 0.00829964 to 0.00829965
Heightened Def Con from 0.00830348 to 0.00830348
Heightened Def Con from 0.00830731 to 0.00830731
Heightened Def Con from 0.00831114 to 0.00831115
Heightened Def Con from 0.00831478 to 0.00831479
Heightened Def Con from 0.00831498 to 0.00831498
Heightened Def Con from 0.00832265 to 0.00832265
Heightened Def Con from 0.00832648 to 0.00832649
Heightened Def Con from 0.00833415 to 0.00833415
Heightened Def Con from 0.00833798 to 0.00833799
Heightened Def Con from 0.00834182 to 0.00834182
Heightened Def Con from 0.00834565 to 0.00834566
Heightened Def Con from 0.00836099 to 0.00836099
Heightened Def Con from 0.00837249 to 0.00837249
Heightened Def Con from 0.00838783 to 0.00838783
Heightened Def Con from 0.0083955 to 0.0083955
Heightened Def Con from 0.00839933 to 0.00839933
Heightened Def Con from 0.00840316 to 0.00840317
Heightened Def Con from 0.00841083 to 0.00841084
Heightened Def Con from 0.00841467 to 0.00841467
Heightened Def Con from 0.00843365 to 0.00843365
Heightened Def Con from 0.00843384 to 0.00843384
Heightened Def Con from 0.00843767 to 0.00843768
Heightened Def Con from 0.00844151 to 0.00844151
Heightened Def Con from 0.00844918 to 0.00844918
Heightened Def Con from 0.00845301 to 0.00845302
Heightened Def Con from 0.00846452 to 0.00846452
Heightened Def Con from 0.00846835 to 0.00846835
Heightened Def Con from 0.00848752 to 0.00848753
Heightened Def Con from 0.00849136 to 0.00849136
Heightened Def Con from 0.00849902 to 0.00849903
Heightened Def Con from 0.00850286 to 0.00850286
Heightened Def Con from 0.00851033 to 0.00851034
Heightened Def Con from 0.00851052 to 0.00851053
Heightened Def Con from 0.00851436 to 0.00851436
Heightened Def Con from 0.00852203 to 0.00852203
Heightened Def Con from 0.00852586 to 0.00852587
Heightened Def Con from 0.0085297 to 0.0085297
Heightened Def Con from 0.00853353 to 0.00853354
Heightened Def Con from 0.00853737 to 0.00853737
Heightened Def Con from 0.0085412 to 0.00854121
Heightened Def Con from 0.00854504 to 0.00854504
Heightened Def Con from 0.00854887 to 0.00854887
Heightened Def Con from 0.00856037 to 0.00856038
Heightened Def Con from 0.00856421 to 0.00856421
Heightened Def Con from 0.00856804 to 0.00856805
Heightened Def Con from 0.00857188 to 0.00857188
Heightened Def Con from 0.00858318 to 0.00858319
Heightened Def Con from 0.00860256 to 0.00860256
Heightened Def Con from 0.00861023 to 0.00861023
Heightened Def Con from 0.0086179 to 0.0086179
Heightened Def Con from 0.00862173 to 0.00862173
Heightened Def Con from 0.00862556 to 0.00862557
Heightened Def Con from 0.00863323 to 0.00863324
Heightened Def Con from 0.00864071 to 0.00864071
Heightened Def Con from 0.0086409 to 0.0086409
Heightened Def Con from 0.00864837 to 0.00864837
Heightened Def Con from 0.00865624 to 0.00865624
Heightened Def Con from 0.00865987 to 0.00865988
Heightened Def Con from 0.00866007 to 0.00866008
Heightened Def Con from 0.00866391 to 0.00866391
Heightened Def Con from 0.00866774 to 0.00866775
Heightened Def Con from 0.00867541 to 0.00867542
Heightened Def Con from 0.00867925 to 0.00867925
Heightened Def Con from 0.00868308 to 0.00868308
Heightened Def Con from 0.00868691 to 0.00868692
Heightened Def Con from 0.00870225 to 0.00870225
Heightened Def Con from 0.00870992 to 0.00870992
Heightened Def Con from 0.00871759 to 0.00871759
Heightened Def Con from 0.00873292 to 0.00873293
Heightened Def Con from 0.00874059 to 0.0087406
Heightened Def Con from 0.0087519 to 0.0087519
Heightened Def Con from 0.00875976 to 0.00875977
Heightened Def Con from 0.0087751 to 0.00877511
Heightened Def Con from 0.00877894 to 0.00877894
Heightened Def Con from 0.00878277 to 0.00878277
Heightened Def Con from 0.00879044 to 0.00879044
Heightened Def Con from 0.00879427 to 0.00879428
Heightened Def Con from 0.00879791 to 0.00879791
Heightened Def Con from 0.00879811 to 0.00879811
Heightened Def Con from 0.00880194 to 0.00880195
Heightened Def Con from 0.00880578 to 0.00880578
Heightened Def Con from 0.00880961 to 0.00880962
Heightened Def Con from 0.00881345 to 0.00881345
Heightened Def Con from 0.00881728 to 0.00881728
Heightened Def Con from 0.00882112 to 0.00882112
Heightened Def Con from 0.00882495 to 0.00882495
Heightened Def Con from 0.00882878 to 0.00882879
Heightened Def Con from 0.00883262 to 0.00883262
Heightened Def Con from 0.00884412 to 0.00884413
Heightened Def Con from 0.00885562 to 0.00885563
Heightened Def Con from 0.00885946 to 0.00885946
Heightened Def Con from 0.0088633 to 0.0088633
Heightened Def Con from 0.00886713 to 0.00886713
Heightened Def Con from 0.00887863 to 0.00887864
Heightened Def Con from 0.00888247 to 0.00888247
Heightened Def Con from 0.00889014 to 0.00889014
Heightened Def Con from 0.00889397 to 0.00889397
Heightened Def Con from 0.00890547 to 0.00890548
Heightened Def Con from 0.00891314 to 0.00891314
Heightened Def Con from 0.00892464 to 0.00892465
Heightened Def Con from 0.00892848 to 0.00892848
Heightened Def Con from 0.00893998 to 0.00893998
Heightened Def Con from 0.00894765 to 0.00894765
Heightened Def Con from 0.00895532 to 0.00895532
Heightened Def Con from 0.00897066 to 0.00897066
Heightened Def Con from 0.00897449 to 0.0089745
Heightened Def Con from 0.00897832 to 0.00897833
Heightened Def Con from 0.00898216 to 0.00898216
Heightened Def Con from 0.0089975 to 0.0089975
Heightened Def Con from 0.00900516 to 0.00900517
Heightened Def Con from 0.009009 to 0.009009
Heightened Def Con from 0.0090205 to 0.00902051
Heightened Def Con from 0.00902434 to 0.00902434
Heightened Def Con from 0.00904734 to 0.00904735
Heightened Def Con from 0.00905098 to 0.00905098
Heightened Def Con from 0.00905501 to 0.00905501
Heightened Def Con from 0.00906268 to 0.00906268
Heightened Def Con from 0.00907035 to 0.00907035
Heightened Def Con from 0.00907802 to 0.00907802
Heightened Def Con from 0.00908569 to 0.00908569
Heightened Def Con from 0.00908952 to 0.00908952
Heightened Def Con from 0.00909335 to 0.00909336
Heightened Def Con from 0.00909719 to 0.00909719
Heightened Def Con from 0.00910869 to 0.00910869
Heightened Def Con from 0.00911252 to 0.00911253
Heightened Def Con from 0.00911636 to 0.00911636
Heightened Def Con from 0.00912403 to 0.00912403
Heightened Def Con from 0.00912786 to 0.00912786
Heightened Def Con from 0.00913169 to 0.0091317
Heightened Def Con from 0.00913936 to 0.00913937
Heightened Def Con from 0.0091547 to 0.00915471
Heightened Def Con from 0.00915854 to 0.00915854
Heightened Def Con from 0.00916237 to 0.00916237
Heightened Def Con from 0.00917004 to 0.00917004
Heightened Def Con from 0.00917387 to 0.00917388
Heightened Def Con from 0.00917771 to 0.00917771
Heightened Def Con from 0.00918154 to 0.00918155
Heightened Def Con from 0.00918921 to 0.00918922
Heightened Def Con from 0.00921222 to 0.00921222
Heightened Def Con from 0.00922372 to 0.00922373
Heightened Def Con from 0.00923522 to 0.00923523
Heightened Def Con from 0.00923906 to 0.00923906
Heightened Def Con from 0.00924289 to 0.0092429
Heightened Def Con from 0.00926207 to 0.00926207
Heightened Def Con from 0.00926974 to 0.00926974
Heightened Def Con from 0.00927741 to 0.00927741
Heightened Def Con from 0.00928124 to 0.00928124
Heightened Def Con from 0.00928508 to 0.00928508
Heightened Def Con from 0.00928891 to 0.00928891
Heightened Def Con from 0.00934259 to 0.0093426
Heightened Def Con from 0.00934643 to 0.00934643
Heightened Def Con from 0.00935026 to 0.00935027
Heightened Def Con from 0.0093541 to 0.0093541
Heightened Def Con from 0.0093656 to 0.0093656
Heightened Def Con from 0.00936943 to 0.00936944
Heightened Def Con from 0.00938477 to 0.00938478
Heightened Def Con from 0.00939628 to 0.00939628
Heightened Def Con from 0.00940395 to 0.00940395
Heightened Def Con from 0.00941162 to 0.00941162
Heightened Def Con from 0.00941545 to 0.00941546
Heightened Def Con from 0.00941928 to 0.00941929
Heightened Def Con from 0.00942312 to 0.00942312
Heightened Def Con from 0.00943079 to 0.00943079
Heightened Def Con from 0.00943462 to 0.00943463
Heightened Def Con from 0.00943846 to 0.00943846
Heightened Def Con from 0.00944229 to 0.0094423
Heightened Def Con from 0.00944613 to 0.00944613
Heightened Def Con from 0.00945379 to 0.0094538
Heightened Def Con from 0.00945743 to 0.00945744
Heightened Def Con from 0.00946146 to 0.00946147
Heightened Def Con from 0.0094653 to 0.0094653
Heightened Def Con from 0.00946914 to 0.00946914
Heightened Def Con from 0.00947297 to 0.00947297
Heightened Def Con from 0.0094768 to 0.00947681
Heightened Def Con from 0.00948064 to 0.00948064
Heightened Def Con from 0.00950364 to 0.00950365
Heightened Def Con from 0.00950728 to 0.00950729
Heightened Def Con from 0.00951515 to 0.00951515
Heightened Def Con from 0.00952282 to 0.00952282
Heightened Def Con from 0.00952665 to 0.00952666
Heightened Def Con from 0.00953049 to 0.00953049
Heightened Def Con from 0.00955733 to 0.00955733
Heightened Def Con from 0.00956117 to 0.00956117
Heightened Def Con from 0.00956883 to 0.00956884
Heightened Def Con from 0.0095765 to 0.00957651
Heightened Def Con from 0.00958034 to 0.00958034
Heightened Def Con from 0.00958417 to 0.00958418
Heightened Def Con from 0.00958801 to 0.00958801
Heightened Def Con from 0.00960699 to 0.00960699
Heightened Def Con from 0.00960718 to 0.00960718
Heightened Def Con from 0.00961101 to 0.00961102
Heightened Def Con from 0.00961868 to 0.00961868
Heightened Def Con from 0.00963018 to 0.00963019
Heightened Def Con from 0.00964169 to 0.00964169
Heightened Def Con from 0.00964935 to 0.00964936
Heightened Def Con from 0.00966086 to 0.00966086
Heightened Def Con from 0.00966469 to 0.0096647
Heightened Def Con from 0.00967236 to 0.00967237
Heightened Def Con from 0.00968003 to 0.00968004
Heightened Def Con from 0.0096877 to 0.0096877
Heightened Def Con from 0.00969537 to 0.00969537
Heightened Def Con from 0.00970687 to 0.00970687
Heightened Def Con from 0.0097107 to 0.00971071
Heightened Def Con from 0.00971454 to 0.00971454
Heightened Def Con from 0.00972221 to 0.00972221
Heightened Def Con from 0.00972988 to 0.00972988
Heightened Def Con from 0.00973371 to 0.00973372
Heightened Def Con from 0.00974905 to 0.00974905
Heightened Def Con from 0.00975288 to 0.00975289
Heightened Def Con from 0.00976056 to 0.00976056
Heightened Def Con from 0.00976439 to 0.00976439
Heightened Def Con from 0.00976822 to 0.00976823
Heightened Def Con from 0.00977589 to 0.0097759
Heightened Def Con from 0.00977973 to 0.00977973
Heightened Def Con from 0.00978356 to 0.00978357
Heightened Def Con from 0.0097874 to 0.0097874
Heightened Def Con from 0.00979123 to 0.00979123
Heightened Def Con from 0.00980273 to 0.00980274
Heightened Def Con from 0.00980656 to 0.00980657
Heightened Def Con from 0.0098104 to 0.0098104
Heightened Def Con from 0.00981424 to 0.00981424
Heightened Def Con from 0.0098219 to 0.00982191
Heightened Def Con from 0.00983341 to 0.00983341
Heightened Def Con from 0.00984491 to 0.00984492
Heightened Def Con from 0.00985642 to 0.00985642
Heightened Def Con from 0.00986408 to 0.00986409
Heightened Def Con from 0.00987559 to 0.00987559
Heightened Def Con from 0.00988306 to 0.00988307
Heightened Def Con from 0.00989476 to 0.00989477
Heightened Def Con from 0.0098986 to 0.0098986
Heightened Def Con from 0.00990243 to 0.00990244
Heightened Def Con from 0.00990627 to 0.00990627
Heightened Def Con from 0.00991394 to 0.00991394
Heightened Def Con from 0.00991777 to 0.00991777
Heightened Def Con from 0.00993311 to 0.00993311
Heightened Def Con from 0.00993694 to 0.00993695
Heightened Def Con from 0.00995995 to 0.00995996
Heightened Def Con from 0.0099866 to 0.0099866
Heightened Def Con from 0.00999446 to 0.00999447
Heightened Def Con from 0.0099981 to 0.00999811
Heightened Def Con from 0.0099983 to 0.0099983

Date: Wed Jun 24 00:28:02 2020
Total elapsed time: 66.232 seconds.

tnom = 27
temp = 27
method = modified trap
totiter = 6360008
traniter = 6359530
tranpoints = 1540230
accept = 1149063
rejected = 392491
matrix size = 44
fillins = 21
solver = Normal
Thread vector: 14.3/8.1[2] 5.9/4.7[2] 0.9/1.4[1] 0.1/2.3[1]  2592/500
Matrix Compiler1: 2.95 KB object code size  1.1/0.7/[0.3]
Matrix Compiler2: 3.39 KB object code size  0.6/0.6/[0.5]

