Circuit: * C:\Users\burak\Desktop\EE 464\MetuInstrumentProject\LTspice\Forward Converter Compensated.asc

Direct Newton iteration failed to find .op point.  (Use ".option noopiter" to skip.)
Starting Gmin stepping
Gmin = 10
Gmin = 1.07374
Gmin = 0.115292
Gmin = 0.0123794
Gmin = 0.00132923
Gmin = 0.000142725
Gmin = 1.5325e-005
Gmin = 1.6455e-006
Gmin = 1.76685e-007
Gmin = 1.89714e-008
Gmin = 2.03704e-009
Gmin = 2.18725e-010
Gmin = 2.34854e-011
Gmin = 2.52173e-012
Gmin = 2.70769e-013
Gmin = 0
Gmin stepping succeeded in finding the operating point.

Heightened Def Con from 8.71905e-006 to 8.72305e-006
Heightened Def Con from 8.72312e-006 to 8.72712e-006
Heightened Def Con from 2.87155e-005 to 2.87195e-005
Heightened Def Con from 3.87149e-005 to 3.8717e-005
Heightened Def Con from 5.36287e-005 to 5.36327e-005
Heightened Def Con from 5.36327e-005 to 5.36367e-005
Heightened Def Con from 5.38581e-005 to 5.38592e-005
Heightened Def Con from 7.4972e-005 to 7.49742e-005
Heightened Def Con from 7.49742e-005 to 7.49753e-005
Heightened Def Con from 7.49765e-005 to 7.49805e-005
Heightened Def Con from 7.49849e-005 to 7.49889e-005
Heightened Def Con from 7.49923e-005 to 7.49944e-005
Heightened Def Con from 7.49946e-005 to 7.49946e-005
Heightened Def Con from 7.49979e-005 to 7.5e-005
Heightened Def Con from 8.57963e-005 to 8.57968e-005
Heightened Def Con from 8.8713e-005 to 8.8717e-005
Heightened Def Con from 8.8717e-005 to 8.8721e-005
Heightened Def Con from 8.87211e-005 to 8.87251e-005
Heightened Def Con from 0.000107336 to 0.000107338
Heightened Def Con from 0.000108711 to 0.000108715
Heightened Def Con from 0.000108715 to 0.000108719
Heightened Def Con from 0.000108719 to 0.000108723
Heightened Def Con from 0.000108723 to 0.000108727
Heightened Def Con from 0.000108729 to 0.00010873
Heightened Def Con from 0.000118066 to 0.000118066
Heightened Def Con from 0.000118068 to 0.000118072
Heightened Def Con from 0.000128707 to 0.000128709
Heightened Def Con from 0.000128915 to 0.000128916
Heightened Def Con from 0.000168701 to 0.000168702
Heightened Def Con from 0.000188711 to 0.000188713
Heightened Def Con from 0.00019871 to 0.00019871
Heightened Def Con from 0.000248715 to 0.000248718
Heightened Def Con from 0.000268707 to 0.000268707
Heightened Def Con from 0.000318721 to 0.000318722
Heightened Def Con from 0.000328708 to 0.000328709
Heightened Def Con from 0.000328719 to 0.000328719
Heightened Def Con from 0.000358701 to 0.000358704
Heightened Def Con from 0.000358711 to 0.000358714
Heightened Def Con from 0.000408708 to 0.000408711
Heightened Def Con from 0.000408717 to 0.000408718
Heightened Def Con from 0.00041872 to 0.000418723
Heightened Def Con from 0.000508704 to 0.000508704
Heightened Def Con from 0.000518701 to 0.000518701
Heightened Def Con from 0.000628711 to 0.000628714
Heightened Def Con from 0.000758703 to 0.000758705
Heightened Def Con from 0.00102871 to 0.00102871
Heightened Def Con from 0.00126871 to 0.00126871
Heightened Def Con from 0.00195871 to 0.00195871
Heightened Def Con from 0.00209871 to 0.00209871
Heightened Def Con from 0.00216871 to 0.00216872
Heightened Def Con from 0.00223872 to 0.00223872
Heightened Def Con from 0.00228869 to 0.0022887
Heightened Def Con from 0.00233871 to 0.00233871
Heightened Def Con from 0.00386912 to 0.00386912
Heightened Def Con from 0.0038791 to 0.0038791
Heightened Def Con from 0.0122946 to 0.0122946

Date: Wed Jun 24 20:07:09 2020
Total elapsed time: 11.028 seconds.

tnom = 27
temp = 27
method = modified trap
totiter = 1792351
traniter = 1791842
tranpoints = 429157
accept = 302378
rejected = 126835
matrix size = 36
fillins = 49
solver = Normal
Matrix Compiler1: 4.07 KB object code size  0.8/0.5/[0.3]
Matrix Compiler2: off  [0.4]/0.6/0.5

