Circuit: * C:\Users\burak\Desktop\EE 464\MetuInstrumentProject\LTspice\Forward Converter.asc

Direct Newton iteration failed to find .op point.  (Use ".option noopiter" to skip.)
Starting Gmin stepping
Gmin = 10
Gmin = 1.07374
Gmin = 0.115292
Gmin = 0.0123794
Gmin = 0.00132923
Gmin = 0.000142725
Gmin = 1.5325e-005
Gmin = 1.6455e-006
Gmin = 1.76685e-007
Gmin = 1.89714e-008
Gmin = 2.03704e-009
Gmin = 2.18725e-010
Gmin = 2.34854e-011
Gmin = 2.52173e-012
Gmin = 2.70769e-013
Gmin = 0
Gmin stepping succeeded in finding the operating point.

Ignoring empty pin current: Ix(u1:5)
Ignoring empty pin current: Ix(u1:5)
Heightened Def Con from 2.84478e-005 to 2.84518e-005
Heightened Def Con from 4.26719e-005 to 4.26759e-005
Heightened Def Con from 0.000109833 to 0.000109837
Heightened Def Con from 0.000117607 to 0.000117611
Heightened Def Con from 0.000138798 to 0.000138802
Heightened Def Con from 0.000151285 to 0.000151289
Heightened Def Con from 0.000168785 to 0.000168789
Heightened Def Con from 0.000184895 to 0.000184899
Heightened Def Con from 0.00019488 to 0.000194884
Heightened Def Con from 0.000204488 to 0.000204492
Heightened Def Con from 0.000252255 to 0.00025226
Heightened Def Con from 0.00027185 to 0.000271854
Heightened Def Con from 0.00028719 to 0.000287195
Heightened Def Con from 0.000337049 to 0.000337053
Heightened Def Con from 0.00034472 to 0.000344724
Heightened Def Con from 0.000386904 to 0.000386908
Heightened Def Con from 0.000394574 to 0.000394578
Heightened Def Con from 0.000402244 to 0.000402248
Heightened Def Con from 0.000417583 to 0.000417587
Heightened Def Con from 0.000440595 to 0.000440599
Heightened Def Con from 0.00048278 to 0.000482784
Heightened Def Con from 0.000494285 to 0.000494289
Heightened Def Con from 0.000501954 to 0.000501959
Heightened Def Con from 0.000517295 to 0.000517299
Heightened Def Con from 0.000547974 to 0.000547978
Heightened Def Con from 0.000590158 to 0.000590163
Heightened Def Con from 0.000617003 to 0.000617007
Heightened Def Con from 0.000624673 to 0.000624677
Heightened Def Con from 0.000640012 to 0.000640016
Heightened Def Con from 0.000655351 to 0.000655355
Heightened Def Con from 0.000666855 to 0.000666859
Heightened Def Con from 0.000689866 to 0.00068987
Heightened Def Con from 0.000697536 to 0.00069754
Heightened Def Con from 0.000701371 to 0.000701375
Heightened Def Con from 0.000735887 to 0.000735891
Heightened Def Con from 0.000774236 to 0.00077424
Heightened Def Con from 0.00077807 to 0.000778075
Heightened Def Con from 0.000781905 to 0.00078191
Heightened Def Con from 0.000797245 to 0.00079725
Heightened Def Con from 0.000801081 to 0.000801085
Heightened Def Con from 0.000820255 to 0.000820259
Heightened Def Con from 0.00082409 to 0.000824094
Heightened Def Con from 0.000850934 to 0.000850938
Heightened Def Con from 0.000877778 to 0.000877782
Heightened Def Con from 0.000893118 to 0.000893122
Heightened Def Con from 0.000916127 to 0.000916131
Heightened Def Con from 0.000935301 to 0.000935305
Heightened Def Con from 0.000946806 to 0.00094681
Heightened Def Con from 0.000958311 to 0.000958315
Heightened Def Con from 0.000965979 to 0.000965984
Heightened Def Con from 0.000992824 to 0.000992828
Heightened Def Con from 0.000996659 to 0.000996663
Heightened Def Con from 0.00101967 to 0.00101967
Heightened Def Con from 0.0010235 to 0.00102351
Heightened Def Con from 0.00106569 to 0.00106569
Heightened Def Con from 0.00106952 to 0.00106953
Heightened Def Con from 0.00108103 to 0.00108103
Heightened Def Con from 0.0010887 to 0.0010887
Heightened Def Con from 0.0011002 to 0.00110021
Heightened Def Con from 0.00110403 to 0.00110404
Heightened Def Con from 0.00111171 to 0.00111171
Heightened Def Con from 0.00111937 to 0.00111938
Heightened Def Con from 0.00113088 to 0.00113088
Heightened Def Con from 0.00113471 to 0.00113472
Heightened Def Con from 0.00114622 to 0.00114622
Heightened Def Con from 0.00115389 to 0.00115389
Heightened Def Con from 0.00116156 to 0.00116156
Heightened Def Con from 0.00117306 to 0.00117307
Heightened Def Con from 0.0011769 to 0.0011769
Heightened Def Con from 0.00118073 to 0.00118074
Heightened Def Con from 0.00119991 to 0.00119991
Heightened Def Con from 0.00120758 to 0.00120758
Heightened Def Con from 0.00121525 to 0.00121525
Heightened Def Con from 0.00122292 to 0.00122292
Heightened Def Con from 0.00123059 to 0.00123059
Heightened Def Con from 0.00124209 to 0.00124209
Heightened Def Con from 0.00124592 to 0.00124593
Heightened Def Con from 0.00128044 to 0.00128044
Heightened Def Con from 0.00129194 to 0.00129195
Heightened Def Con from 0.00131495 to 0.00131496
Heightened Def Con from 0.0013533 to 0.0013533
Heightened Def Con from 0.00136481 to 0.00136481
Heightened Def Con from 0.00136864 to 0.00136864
Heightened Def Con from 0.00137631 to 0.00137631
Heightened Def Con from 0.00138781 to 0.00138782
Heightened Def Con from 0.00139932 to 0.00139932
Heightened Def Con from 0.00140699 to 0.00140699
Heightened Def Con from 0.00141466 to 0.00141466
Heightened Def Con from 0.00142233 to 0.00142233
Heightened Def Con from 0.00143767 to 0.00143767
Heightened Def Con from 0.00144534 to 0.00144534
Heightened Def Con from 0.00145684 to 0.00145685
Heightened Def Con from 0.00147602 to 0.00147602
Heightened Def Con from 0.00147985 to 0.00147986
Heightened Def Con from 0.00148369 to 0.00148369
Heightened Def Con from 0.00148752 to 0.00148753
Heightened Def Con from 0.00149136 to 0.00149136
Heightened Def Con from 0.00150286 to 0.00150286
Heightened Def Con from 0.00151053 to 0.00151053
Heightened Def Con from 0.00151436 to 0.00151437
Heightened Def Con from 0.00153354 to 0.00153354
Heightened Def Con from 0.00154504 to 0.00154505
Heightened Def Con from 0.00159106 to 0.00159107
Heightened Def Con from 0.0016064 to 0.00160641
Heightened Def Con from 0.00162174 to 0.00162175
Heightened Def Con from 0.00163324 to 0.00163325
Heightened Def Con from 0.00164475 to 0.00164475
Heightened Def Con from 0.00167543 to 0.00167543
Heightened Def Con from 0.00167926 to 0.00167927
Heightened Def Con from 0.0016831 to 0.0016831
Heightened Def Con from 0.00169077 to 0.00169077
Heightened Def Con from 0.00169844 to 0.00169844
Heightened Def Con from 0.00170227 to 0.00170228
Heightened Def Con from 0.00170611 to 0.00170611
Heightened Def Con from 0.00170994 to 0.00170995
Heightened Def Con from 0.00171378 to 0.00171378
Heightened Def Con from 0.00173295 to 0.00173296
Heightened Def Con from 0.00175596 to 0.00175596
Heightened Def Con from 0.00176363 to 0.00176363
Heightened Def Con from 0.00177514 to 0.00177514
Heightened Def Con from 0.00177897 to 0.00177897
Heightened Def Con from 0.0017828 to 0.00178281
Heightened Def Con from 0.00179814 to 0.00179815
Heightened Def Con from 0.00180965 to 0.00180965
Heightened Def Con from 0.00185183 to 0.00185184
Heightened Def Con from 0.00187484 to 0.00187484
Heightened Def Con from 0.00187867 to 0.00187868
Heightened Def Con from 0.00188635 to 0.00188635
Heightened Def Con from 0.00190169 to 0.00190169
Heightened Def Con from 0.00190552 to 0.00190552
Heightened Def Con from 0.00190935 to 0.00190936
Heightened Def Con from 0.00191702 to 0.00191703
Heightened Def Con from 0.00193236 to 0.00193237
Heightened Def Con from 0.0019477 to 0.00194771
Heightened Def Con from 0.00195154 to 0.00195154
Heightened Def Con from 0.00195537 to 0.00195538
Heightened Def Con from 0.00199372 to 0.00199373
Heightened Def Con from 0.00199756 to 0.00199756
Heightened Def Con from 0.00200139 to 0.00200139
Heightened Def Con from 0.00200523 to 0.00200523
Heightened Def Con from 0.00201289 to 0.0020129
Heightened Def Con from 0.00201673 to 0.00201673
Heightened Def Con from 0.00202056 to 0.00202057
Heightened Def Con from 0.0020244 to 0.0020244
Heightened Def Con from 0.00202823 to 0.00202824
Heightened Def Con from 0.0020359 to 0.00203591
Heightened Def Con from 0.00206275 to 0.00206275
Heightened Def Con from 0.00207809 to 0.00207809
Heightened Def Con from 0.00208959 to 0.0020896
Heightened Def Con from 0.00209343 to 0.00209343
Heightened Def Con from 0.0021011 to 0.0021011
Heightened Def Con from 0.00212411 to 0.00212411
Heightened Def Con from 0.00212794 to 0.00212794
Heightened Def Con from 0.00213945 to 0.00213945
Heightened Def Con from 0.00215095 to 0.00215095
Heightened Def Con from 0.00217779 to 0.0021778
Heightened Def Con from 0.00218163 to 0.00218163
Heightened Def Con from 0.00218546 to 0.00218547
Heightened Def Con from 0.0021893 to 0.0021893
Heightened Def Con from 0.00222381 to 0.00222382
Heightened Def Con from 0.00222765 to 0.00222765
Heightened Def Con from 0.00224299 to 0.00224299
Heightened Def Con from 0.00224682 to 0.00224682
Heightened Def Con from 0.00225066 to 0.00225066
Heightened Def Con from 0.00225832 to 0.00225833
Heightened Def Con from 0.0022775 to 0.0022775
Heightened Def Con from 0.00230051 to 0.00230051
Heightened Def Con from 0.00233502 to 0.00233503
Heightened Def Con from 0.00235036 to 0.00235037
Heightened Def Con from 0.0023542 to 0.0023542
Heightened Def Con from 0.0023657 to 0.0023657
Heightened Def Con from 0.00240405 to 0.00240405
Heightened Def Con from 0.00241939 to 0.00241939
Heightened Def Con from 0.00244623 to 0.00244624
Heightened Def Con from 0.00245007 to 0.00245007
Heightened Def Con from 0.0024539 to 0.00245391
Heightened Def Con from 0.00246541 to 0.00246541
Heightened Def Con from 0.00246924 to 0.00246925
Heightened Def Con from 0.00248458 to 0.00248458
Heightened Def Con from 0.00249225 to 0.00249225
Heightened Def Con from 0.00249609 to 0.00249609
Heightened Def Con from 0.00250375 to 0.00250376
Heightened Def Con from 0.00256895 to 0.00256895
Heightened Def Con from 0.00257278 to 0.00257279
Heightened Def Con from 0.00259196 to 0.00259196
Heightened Def Con from 0.00261113 to 0.00261114
Heightened Def Con from 0.0026188 to 0.00261881
Heightened Def Con from 0.00263798 to 0.00263798
Heightened Def Con from 0.00265332 to 0.00265332
Heightened Def Con from 0.00266866 to 0.00266866
Heightened Def Con from 0.00267632 to 0.00267633
Heightened Def Con from 0.00268399 to 0.002684
Heightened Def Con from 0.00270317 to 0.00270317
Heightened Def Con from 0.00271467 to 0.00271468
Heightened Def Con from 0.00272234 to 0.00272235
Heightened Def Con from 0.00272618 to 0.00272618
Heightened Def Con from 0.00273768 to 0.00273769
Heightened Def Con from 0.00274535 to 0.00274536
Heightened Def Con from 0.00274919 to 0.00274919
Heightened Def Con from 0.00277603 to 0.00277603
Heightened Def Con from 0.0027952 to 0.00279521
Heightened Def Con from 0.00280287 to 0.00280288
Heightened Def Con from 0.00280671 to 0.00280671
Heightened Def Con from 0.00281054 to 0.00281055
Heightened Def Con from 0.00281821 to 0.00281822
Heightened Def Con from 0.00283355 to 0.00283356
Heightened Def Con from 0.00283739 to 0.00283739
Heightened Def Con from 0.00284506 to 0.00284506
Heightened Def Con from 0.00285273 to 0.00285273
Heightened Def Con from 0.00285656 to 0.00285657
Heightened Def Con from 0.0028604 to 0.0028604
Heightened Def Con from 0.0028719 to 0.00287191
Heightened Def Con from 0.00287574 to 0.00287574
Heightened Def Con from 0.00287957 to 0.00287958
Heightened Def Con from 0.00291408 to 0.00291409
Heightened Def Con from 0.00291792 to 0.00291792
Heightened Def Con from 0.00292559 to 0.00292559
Heightened Def Con from 0.00292942 to 0.00292943
Heightened Def Con from 0.00293326 to 0.00293326
Heightened Def Con from 0.00294093 to 0.00294093
Heightened Def Con from 0.00295627 to 0.00295627
Heightened Def Con from 0.00296394 to 0.00296394
Heightened Def Con from 0.00297161 to 0.00297161
Heightened Def Con from 0.00297544 to 0.00297545
Heightened Def Con from 0.00299078 to 0.00299079
Heightened Def Con from 0.00299462 to 0.00299462
Heightened Def Con from 0.00299845 to 0.00299846
Heightened Def Con from 0.00300612 to 0.00300613
Heightened Def Con from 0.00300996 to 0.00300996
Heightened Def Con from 0.00301379 to 0.0030138
Heightened Def Con from 0.0030368 to 0.00303681
Heightened Def Con from 0.00306748 to 0.00306748
Heightened Def Con from 0.00309049 to 0.00309049
Heightened Def Con from 0.00309432 to 0.00309433
Heightened Def Con from 0.00309816 to 0.00309816
Heightened Def Con from 0.00310583 to 0.00310583
Heightened Def Con from 0.00312117 to 0.00312117
Heightened Def Con from 0.00312884 to 0.00312884
Heightened Def Con from 0.00313651 to 0.00313651
Heightened Def Con from 0.00315185 to 0.00315185
Heightened Def Con from 0.00315568 to 0.00315569
Heightened Def Con from 0.00317102 to 0.00317103
Heightened Def Con from 0.00318636 to 0.00318637
Heightened Def Con from 0.00320554 to 0.00320554
Heightened Def Con from 0.00320937 to 0.00320937
Heightened Def Con from 0.00321704 to 0.00321704
Heightened Def Con from 0.00322471 to 0.00322471
Heightened Def Con from 0.00322855 to 0.00322855
Heightened Def Con from 0.00323238 to 0.00323238
Heightened Def Con from 0.00324388 to 0.00324389
Heightened Def Con from 0.00325155 to 0.00325156
Heightened Def Con from 0.00325922 to 0.00325923
Heightened Def Con from 0.00326689 to 0.0032669
Heightened Def Con from 0.0032784 to 0.0032784
Heightened Def Con from 0.00328607 to 0.00328607
Heightened Def Con from 0.00330524 to 0.00330525
Heightened Def Con from 0.00332825 to 0.00332826
Heightened Def Con from 0.00333592 to 0.00333592
Heightened Def Con from 0.00333975 to 0.00333976
Heightened Def Con from 0.00336276 to 0.00336277
Heightened Def Con from 0.00337043 to 0.00337044
Heightened Def Con from 0.00337427 to 0.00337427
Heightened Def Con from 0.00339344 to 0.00339345
Heightened Def Con from 0.00342029 to 0.00342029
Heightened Def Con from 0.00342796 to 0.00342796
Heightened Def Con from 0.00344713 to 0.00344714
Heightened Def Con from 0.00345097 to 0.00345097
Heightened Def Con from 0.00346631 to 0.00346631
Heightened Def Con from 0.00348165 to 0.00348165
Heightened Def Con from 0.00348548 to 0.00348549
Heightened Def Con from 0.00349699 to 0.00349699
Heightened Def Con from 0.00350082 to 0.00350083
