Circuit: * C:\Users\burak\Desktop\EE 464\MetuInstrumentProject\LTspice\Forward Converter.asc

Direct Newton iteration failed to find .op point.  (Use ".option noopiter" to skip.)
Starting Gmin stepping
Gmin = 10
Gmin = 1.07374
Gmin = 0.115292
Gmin = 0.0123794
Gmin = 0.00132923
Gmin = 0.000142725
Gmin = 1.5325e-005
Gmin = 1.6455e-006
Gmin = 1.76685e-007
Gmin = 1.89714e-008
Gmin = 2.03704e-009
Gmin = 2.18725e-010
Gmin = 2.34854e-011
Gmin = 2.52173e-012
Gmin = 2.70769e-013
Gmin = 0
Gmin stepping succeeded in finding the operating point.

Ignoring empty pin current: Ix(u1:5)
Ignoring empty pin current: Ix(u1:5)
Heightened Def Con from 0.000101316 to 0.00010132
Heightened Def Con from 0.000122759 to 0.000122763
Heightened Def Con from 0.000172968 to 0.000172972
Heightened Def Con from 0.000187118 to 0.000187122
Heightened Def Con from 0.00021296 to 0.000212965
Heightened Def Con from 0.000225003 to 0.000225007
Heightened Def Con from 0.00025827 to 0.000258274
Heightened Def Con from 0.000278689 to 0.000278693
Heightened Def Con from 0.000318452 to 0.000318456
Heightened Def Con from 0.000338332 to 0.000338336
Heightened Def Con from 0.000417848 to 0.000417852
Heightened Def Con from 0.000427787 to 0.000427791
Heightened Def Con from 0.000457605 to 0.000457609
Heightened Def Con from 0.000467544 to 0.000467548
Heightened Def Con from 0.000507302 to 0.000507306
Heightened Def Con from 0.000576876 to 0.00057688
Heightened Def Con from 0.000606694 to 0.000606698
Heightened Def Con from 0.000616634 to 0.000616638
Heightened Def Con from 0.000626573 to 0.000626577
Heightened Def Con from 0.000636512 to 0.000636516
Heightened Def Con from 0.000646452 to 0.000646456
Heightened Def Con from 0.000656391 to 0.000656395
Heightened Def Con from 0.000686209 to 0.000686213
Heightened Def Con from 0.000706087 to 0.000706091
Heightened Def Con from 0.000716026 to 0.00071603
Heightened Def Con from 0.000745845 to 0.000745849
Heightened Def Con from 0.000755564 to 0.000755571
Heightened Def Con from 0.000755784 to 0.000755788
Heightened Def Con from 0.000785383 to 0.000785387
Heightened Def Con from 0.00081542 to 0.000815424
Heightened Def Con from 0.000825359 to 0.000825363
Heightened Def Con from 0.000845238 to 0.000845242
Heightened Def Con from 0.000865117 to 0.000865121
Heightened Def Con from 0.000894936 to 0.00089494
Heightened Def Con from 0.000924754 to 0.000924758
Heightened Def Con from 0.000934693 to 0.000934697
Heightened Def Con from 0.00096451 to 0.000964514
Heightened Def Con from 0.000984169 to 0.000984177
Heightened Def Con from 0.000984389 to 0.000984393
Heightened Def Con from 0.00100427 to 0.00100427
Heightened Def Con from 0.00102415 to 0.00102415
Heightened Def Con from 0.00103408 to 0.00103409
Heightened Def Con from 0.00108378 to 0.00108378
Heightened Def Con from 0.0011136 to 0.0011136
Heightened Def Con from 0.00114342 to 0.00114342
Heightened Def Con from 0.00115314 to 0.00115314
Heightened Def Con from 0.00117323 to 0.00117324
Heightened Def Con from 0.00120305 to 0.00120306
Heightened Def Con from 0.00123287 to 0.00123287
Heightened Def Con from 0.00126269 to 0.00126269
Heightened Def Con from 0.00127263 to 0.00127263
Heightened Def Con from 0.00128235 to 0.00128235
Heightened Def Con from 0.00133226 to 0.00133227
Heightened Def Con from 0.00136208 to 0.00136208
Heightened Def Con from 0.00137202 to 0.00137202
Heightened Def Con from 0.00138196 to 0.00138196
Heightened Def Con from 0.00140184 to 0.00140184
Heightened Def Con from 0.00141178 to 0.00141178
Heightened Def Con from 0.00143166 to 0.00143166
Heightened Def Con from 0.00144159 to 0.0014416
Heightened Def Con from 0.00146147 to 0.00146148
Heightened Def Con from 0.00150123 to 0.00150123
Heightened Def Con from 0.00151095 to 0.00151095
Heightened Def Con from 0.00160062 to 0.00160063
Heightened Def Con from 0.00162028 to 0.00162029
Heightened Def Con from 0.00163044 to 0.00163044
Heightened Def Con from 0.00164038 to 0.00164038
Heightened Def Con from 0.00165032 to 0.00165032
Heightened Def Con from 0.00166026 to 0.00166026
Heightened Def Con from 0.00168014 to 0.00168014
Heightened Def Con from 0.00169008 to 0.00169008
Heightened Def Con from 0.00170995 to 0.00170996
Heightened Def Con from 0.00174971 to 0.00174972
Heightened Def Con from 0.00179941 to 0.00179941
Heightened Def Con from 0.00180913 to 0.00180914
Heightened Def Con from 0.00180935 to 0.00180935
Heightened Def Con from 0.00184889 to 0.00184889
Heightened Def Con from 0.00186876 to 0.00186877
Heightened Def Con from 0.00188886 to 0.00188887
Heightened Def Con from 0.00190874 to 0.00190874
Heightened Def Con from 0.00193856 to 0.00193856
Heightened Def Con from 0.0019485 to 0.0019485
Heightened Def Con from 0.00195844 to 0.00195844
Heightened Def Con from 0.00196837 to 0.00196838
Heightened Def Con from 0.00199819 to 0.0019982
Heightened Def Con from 0.00201807 to 0.00201807
Heightened Def Con from 0.00202801 to 0.00202801
Heightened Def Con from 0.00203795 to 0.00203795
Heightened Def Con from 0.00204789 to 0.00204789
Heightened Def Con from 0.00209759 to 0.00209759
Heightened Def Con from 0.00210752 to 0.00210753
Heightened Def Con from 0.00211746 to 0.00211747
Heightened Def Con from 0.00218704 to 0.00218704
Heightened Def Con from 0.00219698 to 0.00219698
Heightened Def Con from 0.0022067 to 0.0022067
Heightened Def Con from 0.00220692 to 0.00220692
Heightened Def Con from 0.00221686 to 0.00221686
Heightened Def Con from 0.00224667 to 0.00224668
Heightened Def Con from 0.00225661 to 0.00225662
Heightened Def Con from 0.00229637 to 0.00229637
Heightened Def Con from 0.00231625 to 0.00231625
Heightened Def Con from 0.00235601 to 0.00235601
Heightened Def Con from 0.00237588 to 0.00237589
Heightened Def Con from 0.00242558 to 0.00242558
Heightened Def Con from 0.00250509 to 0.0025051
Heightened Def Con from 0.00251503 to 0.00251504
Heightened Def Con from 0.00255479 to 0.00255479
Heightened Def Con from 0.00258461 to 0.00258461
Heightened Def Con from 0.00259455 to 0.00259455
Heightened Def Con from 0.00265418 to 0.00265418
Heightened Def Con from 0.00267384 to 0.00267385
Heightened Def Con from 0.002684 to 0.002684
Heightened Def Con from 0.00280327 to 0.00280327
Heightened Def Con from 0.00283309 to 0.00283309
Heightened Def Con from 0.00288278 to 0.00288279
Heightened Def Con from 0.0029126 to 0.00291261
Heightened Def Con from 0.00293248 to 0.00293248
Heightened Def Con from 0.0029623 to 0.0029623
Heightened Def Con from 0.00297224 to 0.00297224
Heightened Def Con from 0.00298218 to 0.00298218
Heightened Def Con from 0.00303187 to 0.00303188
Heightened Def Con from 0.00305175 to 0.00305175
Heightened Def Con from 0.00309151 to 0.00309151
Heightened Def Con from 0.00311139 to 0.00311139
Heightened Def Con from 0.00315114 to 0.00315115
Heightened Def Con from 0.00316108 to 0.00316109
Heightened Def Con from 0.00318096 to 0.00318096
Heightened Def Con from 0.00318558 to 0.00318558

Date: Wed Jun 24 14:48:45 2020
Total elapsed time: 7.841 seconds.

tnom = 27
temp = 27
method = modified trap
totiter = 811690
traniter = 811211
tranpoints = 195052
accept = 144594
rejected = 50586
matrix size = 44
fillins = 21
solver = Normal
Thread vector: 4.7/3.9[2] 4.5/3.9[2] 0.3/0.9[1] 0.2/0.9[1]  2592/500
Matrix Compiler1: 2.95 KB object code size  1.1/0.5/[0.3]
Matrix Compiler2: off  [0.4]/0.5/0.5

