Circuit: * C:\Users\burak\Desktop\EE 464\MetuInstrumentProject\LTspice\Forward Converter.asc

Direct Newton iteration failed to find .op point.  (Use ".option noopiter" to skip.)
Starting Gmin stepping
Gmin = 10
Gmin = 1.07374
Gmin = 0.115292
Gmin = 0.0123794
Gmin = 0.00132923
Gmin = 0.000142725
Gmin = 1.5325e-005
Gmin = 1.6455e-006
Gmin = 1.76685e-007
Gmin = 1.89714e-008
Gmin = 2.03704e-009
Gmin = 2.18725e-010
Gmin = 2.34854e-011
Gmin = 2.52173e-012
Gmin = 2.70769e-013
Gmin = 0
Gmin stepping succeeded in finding the operating point.

Ignoring empty pin current: Ix(u1:5)
Ignoring empty pin current: Ix(u1:5)
Heightened Def Con from 2.84474e-005 to 2.84524e-005
Heightened Def Con from 0.000111155 to 0.000111159
Heightened Def Con from 0.000133789 to 0.000133793
Heightened Def Con from 0.000140609 to 0.000140613
Heightened Def Con from 0.000153397 to 0.000153401
Heightened Def Con from 0.000165218 to 0.000165222
Heightened Def Con from 0.000170763 to 0.000170767
Heightened Def Con from 0.000176282 to 0.000176287
Heightened Def Con from 0.000181591 to 0.000181595
Heightened Def Con from 0.000186856 to 0.00018686
Heightened Def Con from 0.000191998 to 0.000192003
Heightened Def Con from 0.000201937 to 0.000201941
Heightened Def Con from 0.000220483 to 0.000220488
Heightened Def Con from 0.000254395 to 0.0002544
Heightened Def Con from 0.000258436 to 0.00025844
Heightened Def Con from 0.000266376 to 0.00026638
Heightened Def Con from 0.000270141 to 0.000270146
Heightened Def Con from 0.000289203 to 0.000289208
Heightened Def Con from 0.000304543 to 0.000304547
Heightened Def Con from 0.000316047 to 0.000316051
Heightened Def Con from 0.000339055 to 0.00033906
Heightened Def Con from 0.000354393 to 0.000354397
Heightened Def Con from 0.000373567 to 0.000373571
Heightened Def Con from 0.000377402 to 0.000377406
Heightened Def Con from 0.000385071 to 0.000385075
Heightened Def Con from 0.000388905 to 0.00038891
Heightened Def Con from 0.000396576 to 0.00039658
Heightened Def Con from 0.000400411 to 0.000400415
Heightened Def Con from 0.000404244 to 0.000404249
Heightened Def Con from 0.000415751 to 0.000415755
Heightened Def Con from 0.000431087 to 0.000431092
Heightened Def Con from 0.000434921 to 0.000434926
Heightened Def Con from 0.000465599 to 0.000465604
Heightened Def Con from 0.00048861 to 0.000488614
Heightened Def Con from 0.000496278 to 0.000496282
Heightened Def Con from 0.000500113 to 0.000500117
Heightened Def Con from 0.000519285 to 0.00051929
Heightened Def Con from 0.000526954 to 0.000526958
Heightened Def Con from 0.000530789 to 0.000530793
Heightened Def Con from 0.000538456 to 0.000538461
Heightened Def Con from 0.000546126 to 0.00054613
Heightened Def Con from 0.000557628 to 0.000557633
Heightened Def Con from 0.000561463 to 0.000561468
Heightened Def Con from 0.000576803 to 0.000576808
Heightened Def Con from 0.000580638 to 0.000580642
Heightened Def Con from 0.000584472 to 0.000584476
Heightened Def Con from 0.000588304 to 0.000588309
Heightened Def Con from 0.000611311 to 0.000611315
Heightened Def Con from 0.000618979 to 0.000618983
Heightened Def Con from 0.000622813 to 0.000622817
Heightened Def Con from 0.000630483 to 0.000630487
Heightened Def Con from 0.000634316 to 0.00063432
Heightened Def Con from 0.000638151 to 0.000638155
Heightened Def Con from 0.000657323 to 0.000657328
Heightened Def Con from 0.000664991 to 0.000664996
Heightened Def Con from 0.000668633 to 0.000668639
Heightened Def Con from 0.000668826 to 0.00066883
Heightened Def Con from 0.000687999 to 0.000688003
Heightened Def Con from 0.000699504 to 0.000699508
Heightened Def Con from 0.000703339 to 0.000703344
Heightened Def Con from 0.000711008 to 0.000711013
Heightened Def Con from 0.000718679 to 0.000718683
Heightened Def Con from 0.000722512 to 0.000722516
Heightened Def Con from 0.000730182 to 0.000730186
Heightened Def Con from 0.000741687 to 0.000741691
Heightened Def Con from 0.000745521 to 0.000745525
Heightened Def Con from 0.000757026 to 0.00075703
Heightened Def Con from 0.000772364 to 0.000772368
Heightened Def Con from 0.000780032 to 0.000780037
Heightened Def Con from 0.000783674 to 0.000783678
Heightened Def Con from 0.000783867 to 0.000783871
Heightened Def Con from 0.000791535 to 0.000791539
Heightened Def Con from 0.00079537 to 0.000795374
Heightened Def Con from 0.000799203 to 0.000799207
Heightened Def Con from 0.000803038 to 0.000803042
Heightened Def Con from 0.000806872 to 0.000806877
Heightened Def Con from 0.000818376 to 0.00081838
Heightened Def Con from 0.00082221 to 0.000822215
Heightened Def Con from 0.000829878 to 0.000829883
Heightened Def Con from 0.000837548 to 0.000837553
Heightened Def Con from 0.000852888 to 0.000852892
Heightened Def Con from 0.000860556 to 0.00086056
Heightened Def Con from 0.000868225 to 0.000868229
Heightened Def Con from 0.000883564 to 0.000883569
Heightened Def Con from 0.000891233 to 0.000891237
Heightened Def Con from 0.000902737 to 0.000902741
Heightened Def Con from 0.000910404 to 0.000910408
Heightened Def Con from 0.000921907 to 0.000921911
Heightened Def Con from 0.000925742 to 0.000925746
Heightened Def Con from 0.000937245 to 0.000937249
Heightened Def Con from 0.000944915 to 0.000944919
Heightened Def Con from 0.000948748 to 0.000948752
Heightened Def Con from 0.000952581 to 0.000952586
Heightened Def Con from 0.000967919 to 0.000967924
Heightened Def Con from 0.000990924 to 0.000990928
Heightened Def Con from 0.00100626 to 0.00100627
Heightened Def Con from 0.00101009 to 0.0010101
Heightened Def Con from 0.00101393 to 0.00101393
Heightened Def Con from 0.00101776 to 0.00101777
Heightened Def Con from 0.00102543 to 0.00102544
Heightened Def Con from 0.00102927 to 0.00102927
Heightened Def Con from 0.00104077 to 0.00104078
Heightened Def Con from 0.00104844 to 0.00104845
Heightened Def Con from 0.00105228 to 0.00105228
Heightened Def Con from 0.00105611 to 0.00105611
Heightened Def Con from 0.00106761 to 0.00106762
Heightened Def Con from 0.00107528 to 0.00107529
Heightened Def Con from 0.00107912 to 0.00107912
Heightened Def Con from 0.00109829 to 0.0010983
Heightened Def Con from 0.00110213 to 0.00110213
Heightened Def Con from 0.00111363 to 0.00111364
Heightened Def Con from 0.00112513 to 0.00112514
Heightened Def Con from 0.00114047 to 0.00114047
Heightened Def Con from 0.00114814 to 0.00114814
Heightened Def Con from 0.00115197 to 0.00115198
Heightened Def Con from 0.00115581 to 0.00115581
Heightened Def Con from 0.00116348 to 0.00116348
Heightened Def Con from 0.00118649 to 0.00118649
Heightened Def Con from 0.00119032 to 0.00119032
Heightened Def Con from 0.00120566 to 0.00120566
Heightened Def Con from 0.001221 to 0.001221
Heightened Def Con from 0.00124016 to 0.00124017
Heightened Def Con from 0.00125167 to 0.00125167
Heightened Def Con from 0.0012555 to 0.00125551
Heightened Def Con from 0.00125914 to 0.00125915
Heightened Def Con from 0.00126317 to 0.00126318
Heightened Def Con from 0.00126701 to 0.00126701
Heightened Def Con from 0.00127084 to 0.00127085
Heightened Def Con from 0.00127468 to 0.00127468
Heightened Def Con from 0.00127851 to 0.00127852
Heightened Def Con from 0.00128235 to 0.00128235
Heightened Def Con from 0.00128618 to 0.00128619
Heightened Def Con from 0.00129769 to 0.00129769
Heightened Def Con from 0.00131302 to 0.00131303
Heightened Def Con from 0.00131686 to 0.00131686
Heightened Def Con from 0.00132836 to 0.00132837
Heightened Def Con from 0.001332 to 0.001332
Heightened Def Con from 0.0013322 to 0.0013322
Heightened Def Con from 0.00133986 to 0.00133987
Heightened Def Con from 0.00134754 to 0.00134754
Heightened Def Con from 0.00136288 to 0.00136288
Heightened Def Con from 0.00136671 to 0.00136671
Heightened Def Con from 0.00138588 to 0.00138589
Heightened Def Con from 0.00138971 to 0.00138972
Heightened Def Con from 0.00140122 to 0.00140123
Heightened Def Con from 0.00140506 to 0.00140506
Heightened Def Con from 0.00140889 to 0.00140889
Heightened Def Con from 0.00141272 to 0.00141273
Heightened Def Con from 0.00142423 to 0.00142423
Heightened Def Con from 0.00142806 to 0.00142806
Heightened Def Con from 0.00143189 to 0.0014319
Heightened Def Con from 0.00143573 to 0.00143573
Heightened Def Con from 0.0014434 to 0.0014434
Heightened Def Con from 0.00145107 to 0.00145107
Heightened Def Con from 0.00145874 to 0.00145874
Heightened Def Con from 0.0014664 to 0.00146641
Heightened Def Con from 0.00147024 to 0.00147024
Heightened Def Con from 0.00148174 to 0.00148175
Heightened Def Con from 0.00148558 to 0.00148558
Heightened Def Con from 0.00148941 to 0.00148942
Heightened Def Con from 0.00149325 to 0.00149325
Heightened Def Con from 0.00149708 to 0.00149708
Heightened Def Con from 0.00150091 to 0.00150092
Heightened Def Con from 0.00150475 to 0.00150475
Heightened Def Con from 0.00150838 to 0.00150839
Heightened Def Con from 0.00151605 to 0.00151606
Heightened Def Con from 0.00153159 to 0.00153159
Heightened Def Con from 0.0015546 to 0.0015546
Heightened Def Con from 0.00155843 to 0.00155844
Heightened Def Con from 0.00156994 to 0.00156994
Heightened Def Con from 0.00157761 to 0.00157761
Heightened Def Con from 0.00158528 to 0.00158528
Heightened Def Con from 0.00158911 to 0.00158912
Heightened Def Con from 0.00159295 to 0.00159295
Heightened Def Con from 0.00159678 to 0.00159679
Heightened Def Con from 0.00160445 to 0.00160445
Heightened Def Con from 0.00160828 to 0.00160829
Heightened Def Con from 0.00162362 to 0.00162363
Heightened Def Con from 0.00162746 to 0.00162746
Heightened Def Con from 0.00163129 to 0.00163129
Heightened Def Con from 0.00163896 to 0.00163896
Heightened Def Con from 0.00164279 to 0.0016428
Heightened Def Con from 0.00164663 to 0.00164663
Heightened Def Con from 0.00165046 to 0.00165047
Heightened Def Con from 0.00166964 to 0.00166964
Heightened Def Con from 0.00168094 to 0.00168095
Heightened Def Con from 0.00168497 to 0.00168498
Heightened Def Con from 0.00168881 to 0.00168881
Heightened Def Con from 0.00169264 to 0.00169265
Heightened Def Con from 0.00169648 to 0.00169648
Heightened Def Con from 0.00170031 to 0.00170032
Heightened Def Con from 0.00170798 to 0.00170799
Heightened Def Con from 0.00171565 to 0.00171565
Heightened Def Con from 0.00173482 to 0.00173483
Heightened Def Con from 0.00173866 to 0.00173866
Heightened Def Con from 0.00174249 to 0.0017425
Heightened Def Con from 0.00175381 to 0.00175381
Heightened Def Con from 0.00175783 to 0.00175784
Heightened Def Con from 0.00176914 to 0.00176914
Heightened Def Con from 0.00178084 to 0.00178084
Heightened Def Con from 0.00178468 to 0.00178468
Heightened Def Con from 0.00178831 to 0.00178832
Heightened Def Con from 0.00178851 to 0.00178851
Heightened Def Con from 0.00179234 to 0.00179235
Heightened Def Con from 0.00180365 to 0.00180365
Heightened Def Con from 0.00181152 to 0.00181152
Heightened Def Con from 0.00182302 to 0.00182303
Heightened Def Con from 0.00183069 to 0.0018307
Heightened Def Con from 0.00184603 to 0.00184603
Heightened Def Con from 0.0018537 to 0.0018537
Heightened Def Con from 0.00185753 to 0.00185754
Heightened Def Con from 0.00186904 to 0.00186904
Heightened Def Con from 0.00187287 to 0.00187287
Heightened Def Con from 0.00187671 to 0.00187671
Heightened Def Con from 0.00188437 to 0.00188438
Heightened Def Con from 0.00189588 to 0.00189588
Heightened Def Con from 0.00189971 to 0.00189972
Heightened Def Con from 0.00191122 to 0.00191122
Heightened Def Con from 0.00191505 to 0.00191505
Heightened Def Con from 0.00192252 to 0.00192252
Heightened Def Con from 0.00193422 to 0.00193423
Heightened Def Con from 0.00193806 to 0.00193806
Heightened Def Con from 0.00194553 to 0.00194553
Heightened Def Con from 0.00196107 to 0.00196107
Heightened Def Con from 0.00197257 to 0.00197257
Heightened Def Con from 0.00198024 to 0.00198024
Heightened Def Con from 0.00198407 to 0.00198407
Heightened Def Con from 0.00198791 to 0.00198791
Heightened Def Con from 0.00199174 to 0.00199175
Heightened Def Con from 0.00199558 to 0.00199558
Heightened Def Con from 0.00200305 to 0.00200305
Heightened Def Con from 0.00201475 to 0.00201475
Heightened Def Con from 0.00201858 to 0.00201859
Heightened Def Con from 0.00203776 to 0.00203776
Heightened Def Con from 0.00204159 to 0.00204159
Heightened Def Con from 0.00204542 to 0.00204543
Heightened Def Con from 0.00207227 to 0.00207227
Heightened Def Con from 0.00207993 to 0.00207994
Heightened Def Con from 0.00208377 to 0.00208377
Heightened Def Con from 0.00209911 to 0.00209911
Heightened Def Con from 0.00210294 to 0.00210295
Heightened Def Con from 0.00210678 to 0.00210678
Heightened Def Con from 0.00211444 to 0.00211445
Heightened Def Con from 0.00211828 to 0.00211828
Heightened Def Con from 0.00212211 to 0.00212212
Heightened Def Con from 0.00212595 to 0.00212595
Heightened Def Con from 0.00212978 to 0.00212979
Heightened Def Con from 0.00213362 to 0.00213362
Heightened Def Con from 0.00215259 to 0.0021526
Heightened Def Con from 0.00215279 to 0.0021528
Heightened Def Con from 0.00216046 to 0.00216047
Heightened Def Con from 0.0021643 to 0.0021643
Heightened Def Con from 0.00217196 to 0.00217197
Heightened Def Con from 0.00217944 to 0.00217944
Heightened Def Con from 0.00217964 to 0.00217964
Heightened Def Con from 0.0021873 to 0.00218731
Heightened Def Con from 0.00219094 to 0.00219095
Heightened Def Con from 0.00219114 to 0.00219114
Heightened Def Con from 0.00220264 to 0.00220265
Heightened Def Con from 0.00220648 to 0.00220648
Heightened Def Con from 0.00221798 to 0.00221799
Heightened Def Con from 0.00222546 to 0.00222546
Heightened Def Con from 0.00224099 to 0.00224099
Heightened Def Con from 0.00224866 to 0.00224866
Heightened Def Con from 0.00226016 to 0.00226017
Heightened Def Con from 0.0022755 to 0.00227551
Heightened Def Con from 0.00227934 to 0.00227934
Heightened Def Con from 0.00229084 to 0.00229084
Heightened Def Con from 0.00229467 to 0.00229468
Heightened Def Con from 0.00229851 to 0.00229851
Heightened Def Con from 0.00230234 to 0.00230235
Heightened Def Con from 0.00231001 to 0.00231002
Heightened Def Con from 0.00232151 to 0.00232152
Heightened Def Con from 0.00233685 to 0.00233685
Heightened Def Con from 0.00234452 to 0.00234452
Heightened Def Con from 0.00234835 to 0.00234836
Heightened Def Con from 0.00236369 to 0.0023637
Heightened Def Con from 0.00237903 to 0.00237903
Heightened Def Con from 0.00238287 to 0.00238287
Heightened Def Con from 0.00239437 to 0.00239437
Heightened Def Con from 0.0023982 to 0.00239821
Heightened Def Con from 0.00240204 to 0.00240204
Heightened Def Con from 0.00240587 to 0.00240588
Heightened Def Con from 0.00240971 to 0.00240971
Heightened Def Con from 0.00244422 to 0.00244422
Heightened Def Con from 0.00246339 to 0.0024634
Heightened Def Con from 0.00246723 to 0.00246723
Heightened Def Con from 0.00248256 to 0.00248257
Heightened Def Con from 0.0024862 to 0.00248621
Heightened Def Con from 0.0024864 to 0.0024864
Heightened Def Con from 0.00249407 to 0.00249407
Heightened Def Con from 0.0024979 to 0.00249791
Heightened Def Con from 0.00250557 to 0.00250558
Heightened Def Con from 0.00250941 to 0.00250941
Heightened Def Con from 0.00251324 to 0.00251325
Heightened Def Con from 0.00251708 to 0.00251708
Heightened Def Con from 0.00253625 to 0.00253625
Heightened Def Con from 0.00255522 to 0.00255523
Heightened Def Con from 0.00256309 to 0.00256309
Heightened Def Con from 0.00256673 to 0.00256673
Heightened Def Con from 0.00256693 to 0.00256693
Heightened Def Con from 0.00257076 to 0.00257076
Heightened Def Con from 0.0025859 to 0.00258591
Heightened Def Con from 0.00258993 to 0.00258994
Heightened Def Con from 0.00259377 to 0.00259377
Heightened Def Con from 0.0025976 to 0.00259761
Heightened Def Con from 0.00260124 to 0.00260124
Heightened Def Con from 0.00260527 to 0.00260528
Heightened Def Con from 0.00260911 to 0.00260911
Heightened Def Con from 0.00261294 to 0.00261295
Heightened Def Con from 0.00263978 to 0.00263979
Heightened Def Con from 0.00264362 to 0.00264362
Heightened Def Con from 0.00265129 to 0.00265129
Heightened Def Con from 0.00266279 to 0.00266279
Heightened Def Con from 0.00266662 to 0.00266663
Heightened Def Con from 0.00267429 to 0.0026743
Heightened Def Con from 0.00268963 to 0.00268964
Heightened Def Con from 0.00269346 to 0.00269347
Heightened Def Con from 0.00270497 to 0.00270497
Heightened Def Con from 0.0027088 to 0.0027088
Heightened Def Con from 0.00271647 to 0.00271648
Heightened Def Con from 0.00272394 to 0.00272395
Heightened Def Con from 0.00272414 to 0.00272415
Heightened Def Con from 0.00274331 to 0.00274332
Heightened Def Con from 0.00275482 to 0.00275482
Heightened Def Con from 0.00276249 to 0.00276249
Heightened Def Con from 0.00276632 to 0.00276633
Heightened Def Con from 0.00277016 to 0.00277016
Heightened Def Con from 0.00277399 to 0.002774
Heightened Def Con from 0.00277783 to 0.00277783
Heightened Def Con from 0.00278166 to 0.00278166
Heightened Def Con from 0.00278549 to 0.0027855
Heightened Def Con from 0.00278933 to 0.00278933
Heightened Def Con from 0.00280467 to 0.00280467
Heightened Def Con from 0.0028085 to 0.00280851
Heightened Def Con from 0.00282001 to 0.00282001
Heightened Def Con from 0.00282384 to 0.00282385
Heightened Def Con from 0.00282768 to 0.00282768
Heightened Def Con from 0.00283151 to 0.00283151
Heightened Def Con from 0.00283918 to 0.00283918
Heightened Def Con from 0.00284685 to 0.00284685
Heightened Def Con from 0.00285835 to 0.00285835
Heightened Def Con from 0.00286219 to 0.00286219
Heightened Def Con from 0.00286986 to 0.00286986
Heightened Def Con from 0.00287752 to 0.00287753
Heightened Def Con from 0.00288136 to 0.00288136
Heightened Def Con from 0.00288903 to 0.00288903
Heightened Def Con from 0.00289669 to 0.0028967
Heightened Def Con from 0.00292354 to 0.00292354
Heightened Def Con from 0.00292737 to 0.00292738
Heightened Def Con from 0.00293121 to 0.00293121
Heightened Def Con from 0.00293504 to 0.00293505
Heightened Def Con from 0.00295038 to 0.00295038
Heightened Def Con from 0.00296169 to 0.0029617
Heightened Def Con from 0.00297722 to 0.00297722
Heightened Def Con from 0.00298489 to 0.00298489
Heightened Def Con from 0.00299256 to 0.00299256
Heightened Def Con from 0.00299619 to 0.0029962
Heightened Def Con from 0.00300023 to 0.00300023
Heightened Def Con from 0.00300386 to 0.00300387
Heightened Def Con from 0.0030077 to 0.00300771
Heightened Def Con from 0.00300789 to 0.0030079
Heightened Def Con from 0.00301556 to 0.00301557
Heightened Def Con from 0.00303474 to 0.00303474
Heightened Def Con from 0.00303838 to 0.00303838
Heightened Def Con from 0.00304241 to 0.00304241
Heightened Def Con from 0.00304624 to 0.00304624
Heightened Def Con from 0.00305007 to 0.00305008
Heightened Def Con from 0.00305391 to 0.00305391
Heightened Def Con from 0.00305774 to 0.00305775
Heightened Def Con from 0.00307308 to 0.00307308
Heightened Def Con from 0.00308075 to 0.00308075
Heightened Def Con from 0.00308458 to 0.00308459
Heightened Def Con from 0.00308842 to 0.00308842
Heightened Def Con from 0.00310759 to 0.0031076
Heightened Def Con from 0.00311526 to 0.00311527
Heightened Def Con from 0.0031191 to 0.0031191
Heightened Def Con from 0.00313444 to 0.00313444
Heightened Def Con from 0.00314211 to 0.00314211
Heightened Def Con from 0.00314594 to 0.00314594
Heightened Def Con from 0.00316875 to 0.00316876
Heightened Def Con from 0.00317278 to 0.00317279
Heightened Def Con from 0.00317662 to 0.00317662
Heightened Def Con from 0.00318045 to 0.00318046
Heightened Def Con from 0.00319962 to 0.00319963
Heightened Def Con from 0.00320729 to 0.0032073
Heightened Def Con from 0.00321496 to 0.00321497
Heightened Def Con from 0.00321879 to 0.0032188
Heightened Def Con from 0.00322263 to 0.00322263
Heightened Def Con from 0.00322646 to 0.00322647
Heightened Def Con from 0.0032418 to 0.0032418
Heightened Def Con from 0.00324947 to 0.00324947
Heightened Def Con from 0.0032533 to 0.00325331
Heightened Def Con from 0.00328014 to 0.00328015
Heightened Def Con from 0.00328398 to 0.00328398
Heightened Def Con from 0.00328781 to 0.00328782
Heightened Def Con from 0.00329548 to 0.00329549
Heightened Def Con from 0.00331849 to 0.00331849
Heightened Def Con from 0.00332616 to 0.00332616
Heightened Def Con from 0.00333383 to 0.00333383
Heightened Def Con from 0.003353 to 0.003353
Heightened Def Con from 0.00335683 to 0.00335684
Heightened Def Con from 0.00336067 to 0.00336067
Heightened Def Con from 0.00336834 to 0.00336834
Heightened Def Con from 0.00337217 to 0.00337217
Heightened Def Con from 0.00338367 to 0.00338368
Heightened Def Con from 0.00339517 to 0.00339518
Heightened Def Con from 0.00339901 to 0.00339901
Heightened Def Con from 0.00341818 to 0.00341819
Heightened Def Con from 0.00342585 to 0.00342585
Heightened Def Con from 0.00342969 to 0.00342969
Heightened Def Con from 0.00343735 to 0.00343736
Heightened Def Con from 0.00344119 to 0.00344119
Heightened Def Con from 0.00344886 to 0.00344886
Heightened Def Con from 0.00345269 to 0.0034527
Heightened Def Con from 0.00346016 to 0.00346017
Heightened Def Con from 0.00347187 to 0.00347187
Heightened Def Con from 0.00347954 to 0.00347954
Heightened Def Con from 0.00349487 to 0.00349488
Heightened Def Con from 0.00349871 to 0.00349871
Heightened Def Con from 0.00350234 to 0.00350235
Heightened Def Con from 0.00351021 to 0.00351022
Heightened Def Con from 0.00351405 to 0.00351405
Heightened Def Con from 0.00351788 to 0.00351789
Heightened Def Con from 0.00352171 to 0.00352172
Heightened Def Con from 0.00352555 to 0.00352555
Heightened Def Con from 0.00352938 to 0.00352939
Heightened Def Con from 0.00353322 to 0.00353322
Heightened Def Con from 0.00354089 to 0.00354089
Heightened Def Con from 0.00354472 to 0.00354473
Heightened Def Con from 0.00354856 to 0.00354856
Heightened Def Con from 0.00355239 to 0.00355239
Heightened Def Con from 0.00355623 to 0.00355623
Heightened Def Con from 0.00356773 to 0.00356773
Heightened Def Con from 0.0035754 to 0.0035754
Heightened Def Con from 0.00357923 to 0.00357924
Heightened Def Con from 0.0035869 to 0.00358691
Heightened Def Con from 0.00359073 to 0.00359074
Heightened Def Con from 0.00359457 to 0.00359457
Heightened Def Con from 0.00360588 to 0.00360589
Heightened Def Con from 0.00360991 to 0.00360991
Heightened Def Con from 0.00361758 to 0.00361758
Heightened Def Con from 0.00362141 to 0.00362141
Heightened Def Con from 0.00362908 to 0.00362908
Heightened Def Con from 0.00363291 to 0.00363292
Heightened Def Con from 0.00363675 to 0.00363675
Heightened Def Con from 0.00364058 to 0.00364059
Heightened Def Con from 0.00364825 to 0.00364826
Heightened Def Con from 0.00365592 to 0.00365593
Heightened Def Con from 0.00366359 to 0.00366359
Heightened Def Con from 0.00366742 to 0.00366743
Heightened Def Con from 0.00367126 to 0.00367126
Heightened Def Con from 0.00367509 to 0.0036751
Heightened Def Con from 0.00367893 to 0.00367893
Heightened Def Con from 0.00368659 to 0.0036866
Heightened Def Con from 0.00369043 to 0.00369043
Heightened Def Con from 0.0036981 to 0.0036981
Heightened Def Con from 0.00370193 to 0.00370194
Heightened Def Con from 0.00371343 to 0.00371344
Heightened Def Con from 0.00371727 to 0.00371727
Heightened Def Con from 0.0037211 to 0.00372111
Heightened Def Con from 0.00372494 to 0.00372494
Heightened Def Con from 0.00372877 to 0.00372878
Heightened Def Con from 0.00373261 to 0.00373261
Heightened Def Con from 0.00373644 to 0.00373644
Heightened Def Con from 0.00374411 to 0.00374411
Heightened Def Con from 0.00375561 to 0.00375562
Heightened Def Con from 0.00376328 to 0.00376328
Heightened Def Con from 0.00377478 to 0.00377479
Heightened Def Con from 0.00379012 to 0.00379012
Heightened Def Con from 0.00380929 to 0.0038093
Heightened Def Con from 0.00381313 to 0.00381313
Heightened Def Con from 0.00381696 to 0.00381697
Heightened Def Con from 0.0038208 to 0.0038208
Heightened Def Con from 0.0038323 to 0.0038323
Heightened Def Con from 0.00383613 to 0.00383614
Heightened Def Con from 0.00384764 to 0.00384764
Heightened Def Con from 0.0038553 to 0.00385531
Heightened Def Con from 0.00387064 to 0.00387065
Heightened Def Con from 0.00387448 to 0.00387448
Heightened Def Con from 0.00388981 to 0.00388982
Heightened Def Con from 0.00389748 to 0.00389748
Heightened Def Con from 0.00390131 to 0.00390132
Heightened Def Con from 0.00390515 to 0.00390515
Heightened Def Con from 0.00391282 to 0.00391282
Heightened Def Con from 0.00392049 to 0.00392049
Heightened Def Con from 0.00392432 to 0.00392433
Heightened Def Con from 0.00393199 to 0.00393199
Heightened Def Con from 0.00393582 to 0.00393583
Heightened Def Con from 0.00393966 to 0.00393966
Heightened Def Con from 0.00394349 to 0.0039435
Heightened Def Con from 0.00395116 to 0.00395117
Heightened Def Con from 0.003955 to 0.003955
Heightened Def Con from 0.00396267 to 0.00396267
Heightened Def Con from 0.0039665 to 0.0039665
Heightened Def Con from 0.00397014 to 0.00397015
Heightened Def Con from 0.00399718 to 0.00399718
Heightened Def Con from 0.00400101 to 0.00400101
Heightened Def Con from 0.00400868 to 0.00400868
Heightened Def Con from 0.00401251 to 0.00401252
Heightened Def Con from 0.00402018 to 0.00402018
Heightened Def Con from 0.00402382 to 0.00402383
Heightened Def Con from 0.00402401 to 0.00402402
Heightened Def Con from 0.00402785 to 0.00402785
Heightened Def Con from 0.00403168 to 0.00403169
Heightened Def Con from 0.00404299 to 0.004043
Heightened Def Con from 0.00405852 to 0.00405853
Heightened Def Con from 0.00407386 to 0.00407387
Heightened Def Con from 0.0040775 to 0.00407751
Heightened Def Con from 0.0040777 to 0.0040777
Heightened Def Con from 0.00408536 to 0.00408537
Heightened Def Con from 0.00409303 to 0.00409304
Heightened Def Con from 0.00409687 to 0.00409687
Heightened Def Con from 0.00410454 to 0.00410454
Heightened Def Con from 0.00410837 to 0.00410837
Heightened Def Con from 0.00411604 to 0.00411604
Heightened Def Con from 0.00412754 to 0.00412754
Heightened Def Con from 0.00413521 to 0.00413521
Heightened Def Con from 0.00414288 to 0.00414288
Heightened Def Con from 0.00415055 to 0.00415055
Heightened Def Con from 0.00415821 to 0.00415822
Heightened Def Con from 0.00416205 to 0.00416205
Heightened Def Con from 0.00416588 to 0.00416589
Heightened Def Con from 0.00416972 to 0.00416972
Heightened Def Con from 0.00417355 to 0.00417356
Heightened Def Con from 0.00418506 to 0.00418506
Heightened Def Con from 0.00419272 to 0.00419273
Heightened Def Con from 0.00419656 to 0.00419656
Heightened Def Con from 0.00420423 to 0.00420423
Heightened Def Con from 0.00420806 to 0.00420807
Heightened Def Con from 0.0042119 to 0.0042119
Heightened Def Con from 0.00421573 to 0.00421574
Heightened Def Con from 0.00422724 to 0.00422724
Heightened Def Con from 0.00423874 to 0.00423874
Heightened Def Con from 0.00424257 to 0.00424258
Heightened Def Con from 0.00426558 to 0.00426559
Heightened Def Con from 0.00427709 to 0.00427709
Heightened Def Con from 0.00428475 to 0.00428476
Heightened Def Con from 0.00429242 to 0.00429243
Heightened Def Con from 0.00430776 to 0.00430777
Heightened Def Con from 0.00431926 to 0.00431927
Heightened Def Con from 0.00433077 to 0.00433077
Heightened Def Con from 0.0043346 to 0.00433461
Heightened Def Con from 0.00433844 to 0.00433844
Heightened Def Con from 0.00434227 to 0.00434227
Heightened Def Con from 0.00434994 to 0.00434994
Heightened Def Con from 0.00435377 to 0.00435378
Heightened Def Con from 0.00436144 to 0.00436145
Heightened Def Con from 0.00438062 to 0.00438062
Heightened Def Con from 0.00438425 to 0.00438426
Heightened Def Con from 0.00438445 to 0.00438446
Heightened Def Con from 0.00439979 to 0.00439979
Heightened Def Con from 0.00442663 to 0.00442663
Heightened Def Con from 0.00443046 to 0.00443046
Heightened Def Con from 0.00443813 to 0.00443813
Heightened Def Con from 0.00444196 to 0.00444197
Heightened Def Con from 0.0044458 to 0.0044458
Heightened Def Con from 0.00445347 to 0.00445347
Heightened Def Con from 0.00446113 to 0.00446114
Heightened Def Con from 0.0044688 to 0.00446881
Heightened Def Con from 0.00447264 to 0.00447264
Heightened Def Con from 0.00448414 to 0.00448415
Heightened Def Con from 0.00449181 to 0.00449181
Heightened Def Con from 0.00449565 to 0.00449565
Heightened Def Con from 0.00451865 to 0.00451866
Heightened Def Con from 0.00452249 to 0.00452249
Heightened Def Con from 0.00452632 to 0.00452633
Heightened Def Con from 0.00454166 to 0.00454167
Heightened Def Con from 0.0045455 to 0.0045455
Heightened Def Con from 0.00454913 to 0.00454914
Heightened Def Con from 0.00454933 to 0.00454934
Heightened Def Con from 0.004557 to 0.004557
Heightened Def Con from 0.00459151 to 0.00459152
Heightened Def Con from 0.00460301 to 0.00460302
Heightened Def Con from 0.00461068 to 0.00461069
Heightened Def Con from 0.00461452 to 0.00461452
Heightened Def Con from 0.00462985 to 0.00462986
Heightened Def Con from 0.00464136 to 0.00464136
Heightened Def Con from 0.00464519 to 0.0046452
Heightened Def Con from 0.00464903 to 0.00464903
Heightened Def Con from 0.00466033 to 0.00466034
Heightened Def Con from 0.00466437 to 0.00466437
Heightened Def Con from 0.00467204 to 0.00467204
Heightened Def Con from 0.00467587 to 0.00467588
Heightened Def Con from 0.00469505 to 0.00469505
Heightened Def Con from 0.00469888 to 0.00469889
Heightened Def Con from 0.00470272 to 0.00470272
Heightened Def Con from 0.00471786 to 0.00471786
Heightened Def Con from 0.00471806 to 0.00471806
Heightened Def Con from 0.0047334 to 0.0047334
Heightened Def Con from 0.0047449 to 0.00474491
Heightened Def Con from 0.00475621 to 0.00475621
Heightened Def Con from 0.00476791 to 0.00476791
Heightened Def Con from 0.00477174 to 0.00477175
Heightened Def Con from 0.00477941 to 0.00477941
Heightened Def Con from 0.00478708 to 0.00478708
Heightened Def Con from 0.00479091 to 0.00479091
Heightened Def Con from 0.00479475 to 0.00479475
Heightened Def Con from 0.00480241 to 0.00480242
Heightened Def Con from 0.00481008 to 0.00481009
Heightened Def Con from 0.00481775 to 0.00481775
Heightened Def Con from 0.00482159 to 0.00482159
Heightened Def Con from 0.00483692 to 0.00483693
Heightened Def Con from 0.00484823 to 0.00484823
Heightened Def Con from 0.00484843 to 0.00484843
Heightened Def Con from 0.00485226 to 0.00485226
Heightened Def Con from 0.00487527 to 0.00487527
Heightened Def Con from 0.00489444 to 0.00489444
Heightened Def Con from 0.00489827 to 0.00489828
Heightened Def Con from 0.00490594 to 0.00490595
Heightened Def Con from 0.00490978 to 0.00490978
Heightened Def Con from 0.00491745 to 0.00491745
Heightened Def Con from 0.00492128 to 0.00492128
Heightened Def Con from 0.00493662 to 0.00493662
Heightened Def Con from 0.00494045 to 0.00494046
Heightened Def Con from 0.00495196 to 0.00495196
Heightened Def Con from 0.00495579 to 0.00495579
Heightened Def Con from 0.00495963 to 0.00495963
Heightened Def Con from 0.00496346 to 0.00496346
Heightened Def Con from 0.00496729 to 0.0049673
Heightened Def Con from 0.00497113 to 0.00497113
Heightened Def Con from 0.00497496 to 0.00497497
Heightened Def Con from 0.0049788 to 0.0049788
Heightened Def Con from 0.00499797 to 0.00499798
Heightened Def Con from 0.00500564 to 0.00500565
Heightened Def Con from 0.00501331 to 0.00501331
Heightened Def Con from 0.00502461 to 0.00502462
Heightened Def Con from 0.00502481 to 0.00502482
Heightened Def Con from 0.00503248 to 0.00503249
Heightened Def Con from 0.00504015 to 0.00504015
Heightened Def Con from 0.00504398 to 0.00504399
Heightened Def Con from 0.00504782 to 0.00504782
Heightened Def Con from 0.00505549 to 0.00505549
Heightened Def Con from 0.00505932 to 0.00505933
Heightened Def Con from 0.00506699 to 0.00506699
Heightened Def Con from 0.00509 to 0.00509
Heightened Def Con from 0.00509363 to 0.00509364
Heightened Def Con from 0.00509767 to 0.00509767
Heightened Def Con from 0.00510534 to 0.00510534
Heightened Def Con from 0.00512048 to 0.00512048
Heightened Def Con from 0.00512451 to 0.00512451
Heightened Def Con from 0.00513218 to 0.00513218
Heightened Def Con from 0.00513601 to 0.00513602
Heightened Def Con from 0.00513985 to 0.00513985
Heightened Def Con from 0.00514751 to 0.00514752
Heightened Def Con from 0.00515135 to 0.00515135
Heightened Def Con from 0.00515518 to 0.00515519
Heightened Def Con from 0.00515902 to 0.00515902
Heightened Def Con from 0.00516285 to 0.00516286
Heightened Def Con from 0.00516668 to 0.00516669
Heightened Def Con from 0.00517436 to 0.00517436
Heightened Def Con from 0.00517819 to 0.00517819
Heightened Def Con from 0.00518586 to 0.00518586
Heightened Def Con from 0.00519353 to 0.00519353
Heightened Def Con from 0.00519736 to 0.00519737
Heightened Def Con from 0.0052012 to 0.0052012
Heightened Def Con from 0.00520886 to 0.00520887
Heightened Def Con from 0.0052127 to 0.0052127
Heightened Def Con from 0.00522804 to 0.00522804
Heightened Def Con from 0.00523954 to 0.00523954
Heightened Def Con from 0.00524337 to 0.00524338
Heightened Def Con from 0.00524721 to 0.00524721
Heightened Def Con from 0.00525871 to 0.00525871
Heightened Def Con from 0.00526254 to 0.00526255
Heightened Def Con from 0.00527021 to 0.00527022
Heightened Def Con from 0.00528172 to 0.00528172
Heightened Def Con from 0.00528939 to 0.00528939
Heightened Def Con from 0.00529322 to 0.00529323
Heightened Def Con from 0.00531623 to 0.00531623
Heightened Def Con from 0.0053239 to 0.0053239
Heightened Def Con from 0.00532773 to 0.00532774
Heightened Def Con from 0.0053354 to 0.00533541
Heightened Def Con from 0.00533923 to 0.00533924
Heightened Def Con from 0.00534307 to 0.00534307
Heightened Def Con from 0.0053469 to 0.00534691
Heightened Def Con from 0.00535457 to 0.00535458
Heightened Def Con from 0.00535841 to 0.00535841
Heightened Def Con from 0.00536607 to 0.00536608
Heightened Def Con from 0.00536971 to 0.00536972
Heightened Def Con from 0.00536991 to 0.00536991
Heightened Def Con from 0.00537757 to 0.00537758
Heightened Def Con from 0.00538908 to 0.00538908
Heightened Def Con from 0.00540058 to 0.00540059
Heightened Def Con from 0.00540825 to 0.00540826
Heightened Def Con from 0.00541209 to 0.00541209
Heightened Def Con from 0.00542359 to 0.0054236
Heightened Def Con from 0.00543509 to 0.0054351
Heightened Def Con from 0.00544276 to 0.00544277
Heightened Def Con from 0.0054466 to 0.0054466
Heightened Def Con from 0.00545044 to 0.00545044
Heightened Def Con from 0.00546194 to 0.00546194
Heightened Def Con from 0.00547344 to 0.00547345
Heightened Def Con from 0.00548111 to 0.00548112
Heightened Def Con from 0.00548495 to 0.00548495
Heightened Def Con from 0.00549645 to 0.00549646
Heightened Def Con from 0.00550412 to 0.00550412
Heightened Def Con from 0.00551562 to 0.00551563
Heightened Def Con from 0.00552329 to 0.0055233
Heightened Def Con from 0.00552713 to 0.00552713
Heightened Def Con from 0.0055348 to 0.0055348
Heightened Def Con from 0.00553863 to 0.00553864
Heightened Def Con from 0.00554247 to 0.00554247
Heightened Def Con from 0.0055463 to 0.00554631
Heightened Def Con from 0.00557314 to 0.00557314
Heightened Def Con from 0.00557697 to 0.00557698
Heightened Def Con from 0.00558848 to 0.00558848
Heightened Def Con from 0.00559231 to 0.00559232
Heightened Def Con from 0.00559998 to 0.00559998
Heightened Def Con from 0.00560381 to 0.00560382
Heightened Def Con from 0.00560765 to 0.00560765
Heightened Def Con from 0.00562682 to 0.00562683
Heightened Def Con from 0.00563833 to 0.00563833
Heightened Def Con from 0.00564216 to 0.00564217
Heightened Def Con from 0.00564983 to 0.00564983
Heightened Def Con from 0.00565366 to 0.00565367
Heightened Def Con from 0.0056575 to 0.0056575
Heightened Def Con from 0.005669 to 0.00566901
Heightened Def Con from 0.00567667 to 0.00567667
Heightened Def Con from 0.0056805 to 0.00568051
Heightened Def Con from 0.00568817 to 0.00568818
Heightened Def Con from 0.00569201 to 0.00569201
Heightened Def Con from 0.00571118 to 0.00571118
Heightened Def Con from 0.00571885 to 0.00571885
Heightened Def Con from 0.00572268 to 0.00572268
Heightened Def Con from 0.00572651 to 0.00572652
Heightened Def Con from 0.00573016 to 0.00573016
Heightened Def Con from 0.00574569 to 0.00574569
Heightened Def Con from 0.00575719 to 0.00575719
Heightened Def Con from 0.0057687 to 0.0057687
Heightened Def Con from 0.00577636 to 0.00577637
Heightened Def Con from 0.00581471 to 0.00581471
Heightened Def Con from 0.00582238 to 0.00582238
Heightened Def Con from 0.00582601 to 0.00582602
Heightened Def Con from 0.00582621 to 0.00582622
Heightened Def Con from 0.00583388 to 0.00583388
Heightened Def Con from 0.00584155 to 0.00584155
Heightened Def Con from 0.00584922 to 0.00584922
Heightened Def Con from 0.00585689 to 0.00585689
Heightened Def Con from 0.00586839 to 0.0058684
Heightened Def Con from 0.00587223 to 0.00587223
Heightened Def Con from 0.0058797 to 0.0058797
Heightened Def Con from 0.00588373 to 0.00588374
Heightened Def Con from 0.00589524 to 0.00589524
Heightened Def Con from 0.00590271 to 0.00590271
Heightened Def Con from 0.00591058 to 0.00591058
Heightened Def Con from 0.00591824 to 0.00591825
Heightened Def Con from 0.00593358 to 0.00593359
Heightened Def Con from 0.00594509 to 0.00594509
Heightened Def Con from 0.00594892 to 0.00594893
Heightened Def Con from 0.00595276 to 0.00595276
Heightened Def Con from 0.00596426 to 0.00596427
Heightened Def Con from 0.0059681 to 0.0059681
Heightened Def Con from 0.00597576 to 0.00597577
Heightened Def Con from 0.0059796 to 0.0059796
Heightened Def Con from 0.00598343 to 0.00598344
Heightened Def Con from 0.00599474 to 0.00599474
Heightened Def Con from 0.00599494 to 0.00599494
Heightened Def Con from 0.00599877 to 0.00599877
Heightened Def Con from 0.00601411 to 0.00601411
Heightened Def Con from 0.00602178 to 0.00602178
Heightened Def Con from 0.00602945 to 0.00602945
Heightened Def Con from 0.00603328 to 0.00603328
Heightened Def Con from 0.00604095 to 0.00604095
Heightened Def Con from 0.00605245 to 0.00605246
Heightened Def Con from 0.0060561 to 0.0060561
Heightened Def Con from 0.00606012 to 0.00606013
Heightened Def Con from 0.00606759 to 0.0060676
Heightened Def Con from 0.00606779 to 0.0060678
Heightened Def Con from 0.00607143 to 0.00607143
Heightened Def Con from 0.00607163 to 0.00607163
Heightened Def Con from 0.00607929 to 0.0060793
Heightened Def Con from 0.00608696 to 0.00608697
Heightened Def Con from 0.0060908 to 0.0060908
Heightened Def Con from 0.00609827 to 0.00609827
Heightened Def Con from 0.0061023 to 0.00610231
Heightened Def Con from 0.00611381 to 0.00611381
Heightened Def Con from 0.00612531 to 0.00612532
Heightened Def Con from 0.00612915 to 0.00612915
Heightened Def Con from 0.00613682 to 0.00613682
Heightened Def Con from 0.00615215 to 0.00615216
Heightened Def Con from 0.00615599 to 0.00615599
Heightened Def Con from 0.00617133 to 0.00617133
Heightened Def Con from 0.00618263 to 0.00618264
Heightened Def Con from 0.006202 to 0.00620201
Heightened Def Con from 0.00620584 to 0.00620584
Heightened Def Con from 0.00620967 to 0.00620968
Heightened Def Con from 0.00621351 to 0.00621351
Heightened Def Con from 0.00623268 to 0.00623268
Heightened Def Con from 0.00624418 to 0.00624419
Heightened Def Con from 0.00624802 to 0.00624802
Heightened Def Con from 0.00625568 to 0.00625569
Heightened Def Con from 0.00625932 to 0.00625933
Heightened Def Con from 0.00625952 to 0.00625952
Heightened Def Con from 0.00626335 to 0.00626336
Heightened Def Con from 0.00627102 to 0.00627103
Heightened Def Con from 0.00627466 to 0.00627467
Heightened Def Con from 0.00627486 to 0.00627486
Heightened Def Con from 0.00628252 to 0.00628253
Heightened Def Con from 0.00629019 to 0.0062902
Heightened Def Con from 0.00629786 to 0.00629787
Heightened Def Con from 0.0063017 to 0.0063017
Heightened Def Con from 0.00630553 to 0.00630554
Heightened Def Con from 0.00631301 to 0.00631301
Heightened Def Con from 0.0063132 to 0.00631321
Heightened Def Con from 0.00632835 to 0.00632835
Heightened Def Con from 0.00633621 to 0.00633621
Heightened Def Con from 0.00635155 to 0.00635155
Heightened Def Con from 0.00636305 to 0.00636306
Heightened Def Con from 0.00636689 to 0.00636689
Heightened Def Con from 0.00637839 to 0.00637839
Heightened Def Con from 0.00638222 to 0.00638223
Heightened Def Con from 0.00638606 to 0.00638606
Heightened Def Con from 0.0064014 to 0.0064014
Heightened Def Con from 0.00640523 to 0.00640524
Heightened Def Con from 0.00640906 to 0.00640907
Heightened Def Con from 0.00641653 to 0.00641654
Heightened Def Con from 0.00643207 to 0.00643208
Heightened Def Con from 0.00643591 to 0.00643591
Heightened Def Con from 0.00643974 to 0.00643975
Heightened Def Con from 0.00644741 to 0.00644742
Heightened Def Con from 0.00646275 to 0.00646275
Heightened Def Con from 0.00647042 to 0.00647042
Heightened Def Con from 0.00647425 to 0.00647426
Heightened Def Con from 0.00647809 to 0.00647809
Heightened Def Con from 0.00648173 to 0.00648173
Heightened Def Con from 0.00648575 to 0.00648576
Heightened Def Con from 0.00649342 to 0.00649343
Heightened Def Con from 0.00650109 to 0.0065011
Heightened Def Con from 0.00651643 to 0.00651644
Heightened Def Con from 0.0065241 to 0.0065241
Heightened Def Con from 0.0065471 to 0.00654711
Heightened Def Con from 0.00655477 to 0.00655478
Heightened Def Con from 0.00656244 to 0.00656244
Heightened Def Con from 0.00657011 to 0.00657011
Heightened Def Con from 0.00658161 to 0.00658162
Heightened Def Con from 0.00659695 to 0.00659695
Heightened Def Con from 0.00660078 to 0.00660079
Heightened Def Con from 0.00661229 to 0.00661229
Heightened Def Con from 0.00661996 to 0.00661996
Heightened Def Con from 0.00662379 to 0.0066238
Heightened Def Con from 0.00662763 to 0.00662763
Heightened Def Con from 0.00663146 to 0.00663146
Heightened Def Con from 0.00664276 to 0.00664277
Heightened Def Con from 0.00664296 to 0.00664297
Heightened Def Con from 0.0066468 to 0.0066468
Heightened Def Con from 0.00665063 to 0.00665064
Heightened Def Con from 0.0066583 to 0.00665831
Heightened Def Con from 0.00666597 to 0.00666598
Heightened Def Con from 0.00666961 to 0.00666962
Heightened Def Con from 0.00666981 to 0.00666981
Heightened Def Con from 0.00667364 to 0.00667365
Heightened Def Con from 0.00667748 to 0.00667748
Heightened Def Con from 0.00668515 to 0.00668515
Heightened Def Con from 0.00668898 to 0.00668898
Heightened Def Con from 0.00669281 to 0.00669282
Heightened Def Con from 0.00669665 to 0.00669665
Heightened Def Con from 0.00671965 to 0.00671966
Heightened Def Con from 0.00672732 to 0.00672733
Heightened Def Con from 0.00673479 to 0.0067348
Heightened Def Con from 0.00673883 to 0.00673883
Heightened Def Con from 0.00674246 to 0.00674247
Heightened Def Con from 0.00675416 to 0.00675417
Heightened Def Con from 0.00676164 to 0.00676164
Heightened Def Con from 0.00676567 to 0.00676567
Heightened Def Con from 0.0067695 to 0.00676951
Heightened Def Con from 0.00677334 to 0.00677334
Heightened Def Con from 0.00677717 to 0.00677718
Heightened Def Con from 0.00678101 to 0.00678101
Heightened Def Con from 0.00678484 to 0.00678484
Heightened Def Con from 0.00678867 to 0.00678868
Heightened Def Con from 0.00679251 to 0.00679251
Heightened Def Con from 0.00680784 to 0.00680785
Heightened Def Con from 0.00681168 to 0.00681168
Heightened Def Con from 0.00681551 to 0.00681552
Heightened Def Con from 0.00682702 to 0.00682702
Heightened Def Con from 0.00683086 to 0.00683086
Heightened Def Con from 0.00683852 to 0.00683853
Heightened Def Con from 0.00684236 to 0.00684236
Heightened Def Con from 0.00686153 to 0.00686153
Heightened Def Con from 0.00686537 to 0.00686537
Heightened Def Con from 0.0068692 to 0.0068692
Heightened Def Con from 0.00687687 to 0.00687687
Heightened Def Con from 0.00688454 to 0.00688454
Heightened Def Con from 0.00688837 to 0.00688838
Heightened Def Con from 0.00689604 to 0.00689605
Heightened Def Con from 0.00689988 to 0.00689988
Heightened Def Con from 0.00690371 to 0.00690372
Heightened Def Con from 0.00690755 to 0.00690755
Heightened Def Con from 0.00691905 to 0.00691906
Heightened Def Con from 0.00693055 to 0.00693056
Heightened Def Con from 0.00693439 to 0.00693439
Heightened Def Con from 0.00695356 to 0.00695356
Heightened Def Con from 0.00695739 to 0.0069574
Heightened Def Con from 0.00696123 to 0.00696123
Heightened Def Con from 0.00696506 to 0.00696506
Heightened Def Con from 0.00696889 to 0.0069689
Heightened Def Con from 0.00697656 to 0.00697657
Heightened Def Con from 0.0069804 to 0.0069804
Heightened Def Con from 0.00698806 to 0.00698807
Heightened Def Con from 0.00699957 to 0.00699957
Heightened Def Con from 0.0070034 to 0.00700341
Heightened Def Con from 0.00701107 to 0.00701107
Heightened Def Con from 0.0070149 to 0.00701491
Heightened Def Con from 0.00701874 to 0.00701874
Heightened Def Con from 0.00702257 to 0.00702258
Heightened Def Con from 0.00703024 to 0.00703024
Heightened Def Con from 0.00703407 to 0.00703408
Heightened Def Con from 0.00704174 to 0.00704175
Heightened Def Con from 0.00704558 to 0.00704558
Heightened Def Con from 0.00704941 to 0.00704942
Heightened Def Con from 0.00705325 to 0.00705325
Heightened Def Con from 0.00706092 to 0.00706092
Heightened Def Con from 0.00706858 to 0.00706859
Heightened Def Con from 0.00707242 to 0.00707242
Heightened Def Con from 0.00707625 to 0.00707626
Heightened Def Con from 0.00707989 to 0.00707989
Heightened Def Con from 0.00708009 to 0.00708009
Heightened Def Con from 0.00709159 to 0.0070916
Heightened Def Con from 0.00709543 to 0.00709543
Heightened Def Con from 0.00711076 to 0.00711077
Heightened Def Con from 0.00711843 to 0.00711844
Heightened Def Con from 0.00712227 to 0.00712227
Heightened Def Con from 0.00713377 to 0.00713378
Heightened Def Con from 0.00714528 to 0.00714528
Heightened Def Con from 0.00714911 to 0.00714911
Heightened Def Con from 0.00717212 to 0.00717212
Heightened Def Con from 0.00717595 to 0.00717595
Heightened Def Con from 0.00717978 to 0.00717979
Heightened Def Con from 0.00718725 to 0.00718726
Heightened Def Con from 0.00719129 to 0.00719129
Heightened Def Con from 0.00719896 to 0.00719896
Heightened Def Con from 0.00720279 to 0.0072028
Heightened Def Con from 0.00721026 to 0.00721027
Heightened Def Con from 0.0072143 to 0.0072143
Heightened Def Con from 0.00722196 to 0.00722197
Heightened Def Con from 0.00723347 to 0.00723347
Heightened Def Con from 0.0072373 to 0.00723731
Heightened Def Con from 0.0072488 to 0.00724881
Heightened Def Con from 0.00726031 to 0.00726031
Heightened Def Con from 0.00727181 to 0.00727181
Heightened Def Con from 0.00727928 to 0.00727929
Heightened Def Con from 0.00727948 to 0.00727948
Heightened Def Con from 0.00731399 to 0.00731399
Heightened Def Con from 0.00731782 to 0.00731783
Heightened Def Con from 0.00732549 to 0.0073255
Heightened Def Con from 0.00732913 to 0.00732913
Heightened Def Con from 0.007337 to 0.007337
Heightened Def Con from 0.00736 to 0.00736001
Heightened Def Con from 0.00736384 to 0.00736384
Heightened Def Con from 0.00737534 to 0.00737534
Heightened Def Con from 0.00737918 to 0.00737918
Heightened Def Con from 0.00739452 to 0.00739452
Heightened Def Con from 0.00740583 to 0.00740583
Heightened Def Con from 0.00740985 to 0.00740986
Heightened Def Con from 0.00741752 to 0.00741753
Heightened Def Con from 0.00742116 to 0.00742117
Heightened Def Con from 0.00742136 to 0.00742136
Heightened Def Con from 0.00743266 to 0.00743267
Heightened Def Con from 0.00743286 to 0.00743286
Heightened Def Con from 0.00744053 to 0.00744053
Heightened Def Con from 0.0074482 to 0.0074482
Heightened Def Con from 0.00745203 to 0.00745204
Heightened Def Con from 0.00745587 to 0.00745587
Heightened Def Con from 0.00746737 to 0.00746738
Heightened Def Con from 0.00747504 to 0.00747504
Heightened Def Con from 0.00748654 to 0.00748654
Heightened Def Con from 0.00749804 to 0.00749805
Heightened Def Con from 0.00751338 to 0.00751338
Heightened Def Con from 0.00751721 to 0.00751722
Heightened Def Con from 0.00752488 to 0.00752489
Heightened Def Con from 0.00753255 to 0.00753256
Heightened Def Con from 0.00754789 to 0.00754789
Heightened Def Con from 0.00755556 to 0.00755556
Heightened Def Con from 0.00755939 to 0.0075594
Heightened Def Con from 0.00756706 to 0.00756707
Heightened Def Con from 0.00757089 to 0.0075709
Heightened Def Con from 0.00757473 to 0.00757473
Heightened Def Con from 0.00757856 to 0.00757857
Heightened Def Con from 0.0075824 to 0.00758241
Heightened Def Con from 0.00759007 to 0.00759007
Heightened Def Con from 0.0075939 to 0.00759391
Heightened Def Con from 0.00759774 to 0.00759774
Heightened Def Con from 0.00760541 to 0.00760541
Heightened Def Con from 0.00760924 to 0.00760925
Heightened Def Con from 0.00761308 to 0.00761308
Heightened Def Con from 0.00761671 to 0.00761672
Heightened Def Con from 0.00762458 to 0.00762459
Heightened Def Con from 0.00762842 to 0.00762842
Heightened Def Con from 0.00763225 to 0.00763225
Heightened Def Con from 0.00763609 to 0.00763609
Heightened Def Con from 0.00764759 to 0.00764759
Heightened Def Con from 0.00767826 to 0.00767827
Heightened Def Con from 0.00768593 to 0.00768594
Heightened Def Con from 0.0076936 to 0.00769361
Heightened Def Con from 0.00769744 to 0.00769744
Heightened Def Con from 0.00770127 to 0.00770127
Heightened Def Con from 0.0077049 to 0.00770491
Heightened Def Con from 0.00770894 to 0.00770894
Heightened Def Con from 0.00772044 to 0.00772045
Heightened Def Con from 0.00772408 to 0.00772409
Heightened Def Con from 0.00772427 to 0.00772428
Heightened Def Con from 0.00773578 to 0.00773578
Heightened Def Con from 0.00773961 to 0.00773962
Heightened Def Con from 0.00774345 to 0.00774345
Heightened Def Con from 0.00774728 to 0.00774729
Heightened Def Con from 0.00775495 to 0.00775496
Heightened Def Con from 0.00776646 to 0.00776646
Heightened Def Con from 0.00777029 to 0.00777029
Heightened Def Con from 0.00777393 to 0.00777393
Heightened Def Con from 0.00777412 to 0.00777413
Heightened Def Con from 0.00777776 to 0.00777777
Heightened Def Con from 0.00778179 to 0.0077818
Heightened Def Con from 0.00778946 to 0.00778947
Heightened Def Con from 0.00779713 to 0.00779714
Heightened Def Con from 0.00780096 to 0.00780097
Heightened Def Con from 0.0078048 to 0.0078048
Heightened Def Con from 0.00781247 to 0.00781247
Heightened Def Con from 0.0078163 to 0.00781631
Heightened Def Con from 0.00782014 to 0.00782014
Heightened Def Con from 0.00782397 to 0.00782398
Heightened Def Con from 0.00783164 to 0.00783165
Heightened Def Con from 0.00783931 to 0.00783931
Heightened Def Con from 0.00784698 to 0.00784698
Heightened Def Con from 0.00785465 to 0.00785465
Heightened Def Con from 0.00785848 to 0.00785849
Heightened Def Con from 0.00786232 to 0.00786232
Heightened Def Con from 0.00787382 to 0.00787382
Heightened Def Con from 0.00790066 to 0.00790067
Heightened Def Con from 0.0079045 to 0.0079045
Heightened Def Con from 0.00790813 to 0.00790814
Heightened Def Con from 0.00791984 to 0.00791984
Heightened Def Con from 0.00793901 to 0.00793902
Heightened Def Con from 0.00794284 to 0.00794285
Heightened Def Con from 0.00795051 to 0.00795052
Heightened Def Con from 0.00797352 to 0.00797353
Heightened Def Con from 0.00799633 to 0.00799634
Heightened Def Con from 0.00799653 to 0.00799653
Heightened Def Con from 0.00800036 to 0.00800037
Heightened Def Con from 0.0080042 to 0.0080042
Heightened Def Con from 0.00801186 to 0.00801187
Heightened Def Con from 0.0080157 to 0.0080157
Heightened Def Con from 0.00801953 to 0.00801954
Heightened Def Con from 0.00802337 to 0.00802337
Heightened Def Con from 0.00803104 to 0.00803104
Heightened Def Con from 0.00803851 to 0.00803851
Heightened Def Con from 0.00803871 to 0.00803871
Heightened Def Con from 0.00804638 to 0.00804638
Heightened Def Con from 0.00805405 to 0.00805405
Heightened Def Con from 0.00807322 to 0.00807322
Heightened Def Con from 0.00808472 to 0.00808472
Heightened Def Con from 0.00809239 to 0.00809239
Heightened Def Con from 0.00809622 to 0.00809622
Heightened Def Con from 0.00810752 to 0.00810753
Heightened Def Con from 0.00810772 to 0.00810773
Heightened Def Con from 0.00811156 to 0.00811156
Heightened Def Con from 0.00811539 to 0.0081154
Heightened Def Con from 0.00811923 to 0.00811923
Heightened Def Con from 0.00812306 to 0.00812307
Heightened Def Con from 0.00813073 to 0.00813074
Heightened Def Con from 0.00813456 to 0.00813457
Heightened Def Con from 0.00814607 to 0.00814607
Heightened Def Con from 0.00814991 to 0.00814991
Heightened Def Con from 0.00816141 to 0.00816141
Heightened Def Con from 0.00816524 to 0.00816525
Heightened Def Con from 0.00817291 to 0.00817291
Heightened Def Con from 0.00818058 to 0.00818058
Heightened Def Con from 0.00818825 to 0.00818825
Heightened Def Con from 0.00819208 to 0.00819209
Heightened Def Con from 0.00819592 to 0.00819592
Heightened Def Con from 0.00819975 to 0.00819976
Heightened Def Con from 0.00820742 to 0.00820743
Heightened Def Con from 0.00821126 to 0.00821126
Heightened Def Con from 0.00822276 to 0.00822276
Heightened Def Con from 0.00822659 to 0.0082266
Heightened Def Con from 0.00825344 to 0.00825344
Heightened Def Con from 0.00826111 to 0.00826111
Heightened Def Con from 0.00826494 to 0.00826495
Heightened Def Con from 0.00826878 to 0.00826878
Heightened Def Con from 0.00827645 to 0.00827645
Heightened Def Con from 0.00828028 to 0.00828028
Heightened Def Con from 0.00829562 to 0.00829562
Heightened Def Con from 0.00829945 to 0.00829945
Heightened Def Con from 0.00830712 to 0.00830712
Heightened Def Con from 0.00831862 to 0.00831862
Heightened Def Con from 0.00832246 to 0.00832246
Heightened Def Con from 0.00833396 to 0.00833396
Heightened Def Con from 0.00833779 to 0.0083378
Heightened Def Con from 0.00834163 to 0.00834163
Heightened Def Con from 0.0083493 to 0.0083493
Heightened Def Con from 0.00835313 to 0.00835313
Heightened Def Con from 0.0083608 to 0.0083608
Heightened Def Con from 0.0083723 to 0.00837231
Heightened Def Con from 0.0083838 to 0.00838381
Heightened Def Con from 0.00838764 to 0.00838764
Heightened Def Con from 0.0083953 to 0.00839531
Heightened Def Con from 0.00840278 to 0.00840279
Heightened Def Con from 0.00841064 to 0.00841065
Heightened Def Con from 0.00841831 to 0.00841832
Heightened Def Con from 0.00842195 to 0.00842196
Heightened Def Con from 0.00842215 to 0.00842215
Heightened Def Con from 0.00842598 to 0.00842598
Heightened Def Con from 0.00843748 to 0.00843749
Heightened Def Con from 0.00845665 to 0.00845666
Heightened Def Con from 0.00847199 to 0.00847199
Heightened Def Con from 0.00847582 to 0.00847583
Heightened Def Con from 0.00848349 to 0.0084835
Heightened Def Con from 0.00848733 to 0.00848733
Heightened Def Con from 0.00849116 to 0.00849117
Heightened Def Con from 0.00849883 to 0.00849883
Heightened Def Con from 0.008518 to 0.00851801
Heightened Def Con from 0.00852567 to 0.00852568
Heightened Def Con from 0.00853717 to 0.00853718
Heightened Def Con from 0.00856766 to 0.00856766
Heightened Def Con from 0.00857552 to 0.00857553
Heightened Def Con from 0.00857936 to 0.00857936
Heightened Def Con from 0.00858319 to 0.00858319
Heightened Def Con from 0.00858702 to 0.00858703
Heightened Def Con from 0.00860236 to 0.00860237
Heightened Def Con from 0.0086062 to 0.0086062
Heightened Def Con from 0.00861003 to 0.00861004
Heightened Def Con from 0.00862153 to 0.00862154
Heightened Def Con from 0.00862537 to 0.00862537
Heightened Def Con from 0.00864838 to 0.00864838
Heightened Def Con from 0.00865221 to 0.00865222
Heightened Def Con from 0.00865605 to 0.00865605
Heightened Def Con from 0.00867138 to 0.00867139
Heightened Def Con from 0.00867522 to 0.00867522
Heightened Def Con from 0.00868672 to 0.00868673
Heightened Def Con from 0.00869439 to 0.00869439
Heightened Def Con from 0.00869823 to 0.00869823
Heightened Def Con from 0.00870206 to 0.00870206
Heightened Def Con from 0.00870589 to 0.0087059
Heightened Def Con from 0.0087174 to 0.0087174
Heightened Def Con from 0.00872123 to 0.00872124
Heightened Def Con from 0.00872507 to 0.00872507
Heightened Def Con from 0.00873274 to 0.00873274
Heightened Def Con from 0.00873657 to 0.00873658
Heightened Def Con from 0.00874424 to 0.00874424
Heightened Def Con from 0.00874807 to 0.00874808
Heightened Def Con from 0.00875574 to 0.00875575
Heightened Def Con from 0.00875958 to 0.00875958
Heightened Def Con from 0.00877108 to 0.00877108
Heightened Def Con from 0.00877875 to 0.00877875
Heightened Def Con from 0.00878258 to 0.00878259
Heightened Def Con from 0.00879408 to 0.00879409
Heightened Def Con from 0.00880942 to 0.00880943
Heightened Def Con from 0.00881326 to 0.00881326
Heightened Def Con from 0.00881709 to 0.0088171
Heightened Def Con from 0.00882476 to 0.00882477
Heightened Def Con from 0.00883627 to 0.00883627
Heightened Def Con from 0.0088401 to 0.00884011
Heightened Def Con from 0.00884374 to 0.00884374
Heightened Def Con from 0.00884394 to 0.00884394
Heightened Def Con from 0.00885544 to 0.00885545
Heightened Def Con from 0.00885928 to 0.00885928
Heightened Def Con from 0.00887058 to 0.00887059
Heightened Def Con from 0.00887442 to 0.00887442
Heightened Def Con from 0.00887462 to 0.00887462
Heightened Def Con from 0.00887845 to 0.00887845
Heightened Def Con from 0.00889379 to 0.00889379
Heightened Def Con from 0.00889762 to 0.00889763
Heightened Def Con from 0.00890146 to 0.00890146
Heightened Def Con from 0.00890529 to 0.0089053
Heightened Def Con from 0.00890913 to 0.00890913
Heightened Def Con from 0.00891679 to 0.0089168
Heightened Def Con from 0.00893213 to 0.00893213
Heightened Def Con from 0.00894727 to 0.00894727
Heightened Def Con from 0.00895111 to 0.00895112
Heightened Def Con from 0.0089513 to 0.00895131
Heightened Def Con from 0.00895897 to 0.00895897
Heightened Def Con from 0.0089628 to 0.00896281
Heightened Def Con from 0.00896664 to 0.00896664
Heightened Def Con from 0.00897047 to 0.00897048
Heightened Def Con from 0.00897814 to 0.00897815
Heightened Def Con from 0.00898965 to 0.00898965
Heightened Def Con from 0.00899348 to 0.00899348
Heightened Def Con from 0.00900115 to 0.00900115
Heightened Def Con from 0.00900498 to 0.00900499
Heightened Def Con from 0.00901265 to 0.00901266
Heightened Def Con from 0.00901649 to 0.00901649
Heightened Def Con from 0.00902032 to 0.00902033
Heightened Def Con from 0.00902799 to 0.009028
Heightened Def Con from 0.00903183 to 0.00903183
Heightened Def Con from 0.00903566 to 0.00903566
Heightened Def Con from 0.0090625 to 0.00906251
Heightened Def Con from 0.00906634 to 0.00906634
Heightened Def Con from 0.00907017 to 0.00907017
Heightened Def Con from 0.009074 to 0.00907401
Heightened Def Con from 0.00908167 to 0.00908168
Heightened Def Con from 0.00908531 to 0.00908532
Heightened Def Con from 0.00909318 to 0.00909318
Heightened Def Con from 0.00909701 to 0.00909701
Heightened Def Con from 0.00910851 to 0.00910852
Heightened Def Con from 0.00911235 to 0.00911235
Heightened Def Con from 0.00912001 to 0.00912002
Heightened Def Con from 0.00912385 to 0.00912385
Heightened Def Con from 0.00912768 to 0.00912769
Heightened Def Con from 0.00913152 to 0.00913152
Heightened Def Con from 0.00913919 to 0.00913919
Heightened Def Con from 0.00914302 to 0.00914303
Heightened Def Con from 0.0091622 to 0.0091622
Heightened Def Con from 0.00916603 to 0.00916603
Heightened Def Con from 0.00916986 to 0.00916987
Heightened Def Con from 0.0091737 to 0.0091737
Heightened Def Con from 0.00918137 to 0.00918137
Heightened Def Con from 0.0091852 to 0.00918521
Heightened Def Con from 0.00918904 to 0.00918904
Heightened Def Con from 0.00920438 to 0.00920438
Heightened Def Con from 0.00920821 to 0.00920821
Heightened Def Con from 0.00921205 to 0.00921205
Heightened Def Con from 0.00921971 to 0.00921972
Heightened Def Con from 0.00923122 to 0.00923122
Heightened Def Con from 0.00924272 to 0.00924273
Heightened Def Con from 0.00924656 to 0.00924656
Heightened Def Con from 0.00925423 to 0.00925423
Heightened Def Con from 0.00925806 to 0.00925807
Heightened Def Con from 0.00926957 to 0.00926957
Heightened Def Con from 0.0092734 to 0.0092734
Heightened Def Con from 0.00928107 to 0.00928107
Heightened Def Con from 0.0092849 to 0.00928491
Heightened Def Con from 0.00928874 to 0.00928874
Heightened Def Con from 0.00930408 to 0.00930408
Heightened Def Con from 0.00930791 to 0.00930792
Heightened Def Con from 0.00931175 to 0.00931175
Heightened Def Con from 0.00931558 to 0.00931558
Heightened Def Con from 0.00933092 to 0.00933092
Heightened Def Con from 0.00933475 to 0.00933476
Heightened Def Con from 0.00934242 to 0.00934243
Heightened Def Con from 0.0093616 to 0.0093616
Heightened Def Con from 0.0093731 to 0.00937311
Heightened Def Con from 0.00938461 to 0.00938461
Heightened Def Con from 0.00938844 to 0.00938844
Heightened Def Con from 0.00939994 to 0.00939995
Heightened Def Con from 0.00941125 to 0.00941126
Heightened Def Con from 0.00941528 to 0.00941529
Heightened Def Con from 0.00942295 to 0.00942295
Heightened Def Con from 0.00943829 to 0.00943829
Heightened Def Con from 0.00944596 to 0.00944596
Heightened Def Con from 0.00945746 to 0.00945746
Heightened Def Con from 0.0094843 to 0.00948431
Heightened Def Con from 0.00949197 to 0.00949197
Heightened Def Con from 0.00949964 to 0.00949964
Heightened Def Con from 0.00950347 to 0.00950348
Heightened Def Con from 0.00950731 to 0.00950731
Heightened Def Con from 0.00951498 to 0.00951498
Heightened Def Con from 0.00952264 to 0.00952265
Heightened Def Con from 0.00952648 to 0.00952648
Heightened Def Con from 0.00953031 to 0.00953032
Heightened Def Con from 0.00953395 to 0.00953395
Heightened Def Con from 0.00954182 to 0.00954182
Heightened Def Con from 0.00954949 to 0.00954949
Heightened Def Con from 0.00955332 to 0.00955332
Heightened Def Con from 0.00958016 to 0.00958017
Heightened Def Con from 0.0095955 to 0.0095955
Heightened Def Con from 0.00959934 to 0.00959934
Heightened Def Con from 0.00960317 to 0.00960317
Heightened Def Con from 0.00961084 to 0.00961085
Heightened Def Con from 0.00961448 to 0.00961448
Heightened Def Con from 0.00961468 to 0.00961468
Heightened Def Con from 0.00961851 to 0.00961851
Heightened Def Con from 0.00963385 to 0.00963385
Heightened Def Con from 0.00964535 to 0.00964535
Heightened Def Con from 0.00966836 to 0.00966836
Heightened Def Con from 0.00967219 to 0.0096722
Heightened Def Con from 0.0096952 to 0.0096952
Heightened Def Con from 0.00970287 to 0.00970287
Heightened Def Con from 0.0097067 to 0.00970671
Heightened Def Con from 0.00971437 to 0.00971438
Heightened Def Con from 0.00971801 to 0.00971802
Heightened Def Con from 0.00972204 to 0.00972205
Heightened Def Con from 0.00972588 to 0.00972588
Heightened Def Con from 0.00973354 to 0.00973355
Heightened Def Con from 0.00973719 to 0.00973719
Heightened Def Con from 0.00973738 to 0.00973738
Heightened Def Con from 0.00974888 to 0.00974889
Heightened Def Con from 0.00975271 to 0.00975272
Heightened Def Con from 0.00975655 to 0.00975655
Heightened Def Con from 0.00976038 to 0.00976039
Heightened Def Con from 0.00976805 to 0.00976806
Heightened Def Con from 0.00977189 to 0.00977189
Heightened Def Con from 0.00980256 to 0.00980256
Heightened Def Con from 0.0098179 to 0.0098179
Heightened Def Con from 0.00982153 to 0.00982154
Heightened Def Con from 0.00983323 to 0.00983324
Heightened Def Con from 0.00983707 to 0.00983707
Heightened Def Con from 0.0098409 to 0.00984091
Heightened Def Con from 0.00984857 to 0.00984858
Heightened Def Con from 0.00985241 to 0.00985241
Heightened Def Con from 0.00986775 to 0.00986775
Heightened Def Con from 0.00987542 to 0.00987542
Heightened Def Con from 0.00988308 to 0.00988309
Heightened Def Con from 0.00988692 to 0.00988692
Heightened Def Con from 0.00990609 to 0.0099061
Heightened Def Con from 0.00990993 to 0.00990993
Heightened Def Con from 0.00991376 to 0.00991377
Heightened Def Con from 0.0099176 to 0.0099176
Heightened Def Con from 0.00992526 to 0.00992527
Heightened Def Con from 0.0099291 to 0.0099291
Heightened Def Con from 0.00993677 to 0.00993677
Heightened Def Con from 0.00994827 to 0.00994828
Heightened Def Con from 0.00995594 to 0.00995594
Heightened Def Con from 0.00995977 to 0.00995978
Heightened Def Con from 0.00996361 to 0.00996361
Heightened Def Con from 0.00996744 to 0.00996745
Heightened Def Con from 0.00997128 to 0.00997128
Heightened Def Con from 0.00997895 to 0.00997895
Heightened Def Con from 0.00999045 to 0.00999045
Heightened Def Con from 0.00999428 to 0.00999429

Date: Tue Jun 23 16:15:06 2020
Total elapsed time: 56.566 seconds.

tnom = 27
temp = 27
method = modified trap
totiter = 6447878
traniter = 6447400
tranpoints = 1557600
accept = 1161746
rejected = 397162
matrix size = 44
fillins = 21
solver = Normal
Thread vector: 4.1/3.8[1] 2.7/2.3[2] 0.4/2.6[1] 0.2/1.1[1]  2592/500
Matrix Compiler1: 2.95 KB object code size  0.6/0.4/[0.3]
Matrix Compiler2: 3.39 KB object code size  0.5/0.5/[0.5]

