Circuit: * C:\Users\burak\Desktop\EE 464\MetuInstrumentProject\LTspice\Forward Converter.asc

Fatal Error: MOSFET m§q1: the Vertical DMOS FET requires the source and bulk to be the same node.
