Circuit: * C:\Users\burak\Desktop\EE 464\MetuInstrumentProject\LTspice\Thermal Circuit.asc

WARNING: Less than two connections to node TJUNCTION.  This node is used by B:U4:2.
Direct Newton iteration failed to find .op point.  (Use ".option noopiter" to skip.)
Starting Gmin stepping
Gmin = 10
Gmin = 1.07374
Gmin = 0.115292
Gmin = 0.0123794
Gmin = 0.00132923
Gmin = 0.000142725
Gmin = 1.5325e-005
Gmin = 1.6455e-006
Gmin = 1.76685e-007
Gmin = 1.89714e-008
Gmin = 2.03704e-009
Gmin = 2.18725e-010
Gmin = 2.34854e-011
Gmin = 2.52173e-012
Gmin = 2.70769e-013
Gmin = 0
Gmin stepping succeeded in finding the operating point.

Heightened Def Con from 7.55051e-005 to 7.55091e-005
Heightened Def Con from 0.000108719 to 0.00010872
Heightened Def Con from 0.00010872 to 0.000108723
Heightened Def Con from 0.000238703 to 0.000238704

Date: Wed Jun 24 20:46:07 2020
Total elapsed time: 207.803 seconds.

tnom = 27
temp = 27
method = modified trap
totiter = 15091423
traniter = 15090923
tranpoints = 3643458
accept = 2566760
rejected = 1076702
matrix size = 73
fillins = 61
solver = Normal
Thread vector: 5.0/4.0[3] 5.0/3.0[3] 1.4/2.9[1] 0.2/1.1[1]  2592/500
Matrix Compiler1: 6.19 KB object code size  2.6/1.6/[0.9]
Matrix Compiler2: 6.54 KB object code size  1.3/1.9/[0.7]

