Circuit: * C:\Users\burak\Desktop\EE 464\MetuInstrumentProject\LTspice\transformer.asc

Direct Newton iteration for .op point succeeded.
Heightened Def Con from 4.94435 to 4.94435

Date: Sun Jun 21 20:00:27 2020
Total elapsed time: 60.278 seconds.

tnom = 27
temp = 27
method = modified trap
totiter = 2037269
traniter = 2037266
tranpoints = 1018495
accept = 1006994
rejected = 11502
matrix size = 22
fillins = 12
solver = Normal
Matrix Compiler1: 1.21 KB object code size  0.4/0.2/[0.2]
Matrix Compiler2: 1.66 KB object code size  0.2/0.3/[0.2]

